###
### Created by PolyChef-cpp17 on Mon May 12 10:39:07 2025
###

@<TRIPOS>MOLECULE
NO_INFO
1199 1198 1 0 0
SMALL
USER_CHARGES


@<TRIPOS>ATOM
      1 C         125.0627  238.2050   84.3134 C.3       0      M_A    0.0000
      2 C         124.1163  237.1250   83.7987 C.3       0      M_A    0.0000
      3 O         122.9667  237.7167   83.1952 O.3       0      M_A    0.0000
      4 H         125.3142  238.9057   83.5092 H         0      M_A    0.0000
      5 H         124.5593  238.7994   85.0854 H         0      M_A    0.0000
      6 H         123.7472  236.5209   84.6373 H         0      M_A    0.0000
      7 H         124.6204  236.4266   83.1151 H         0      M_A    0.0000
      8 C         123.3074  238.5023   82.0740 C.3       1      M_A    0.0000
      9 C         122.6516  239.8787   82.1255 C.3       1      M_A    0.0000
     10 O         123.2772  240.7634   81.1972 O.3       1      M_A    0.0000
     11 H         123.0173  237.9764   81.1573 H         1      M_A    0.0000
     12 H         124.3972  238.6145   82.0258 H         1      M_A    0.0000
     13 H         122.7940  240.3236   83.1186 H         1      M_A    0.0000
     14 H         121.5649  239.8239   81.9660 H         1      M_A    0.0000
     15 C         122.8263  242.0913   81.3511 C.3       2      M_A    0.0000
     16 C         122.3976  242.7025   80.0207 C.3       2      M_A    0.0000
     17 O         121.3559  243.6562   80.2235 O.3       2      M_A    0.0000
     18 H         123.6173  242.6951   81.8103 H         2      M_A    0.0000
     19 H         121.9849  242.1108   82.0542 H         2      M_A    0.0000
     20 H         121.9799  241.9243   79.3693 H         2      M_A    0.0000
     21 H         123.2468  243.1378   79.4743 H         2      M_A    0.0000
     22 C         121.1747  244.4843   79.0959 C.3       3      M_A    0.0000
     23 C         120.7401  245.8925   79.4902 C.3       3      M_A    0.0000
     24 O         121.8047  246.8191   79.2809 O.3       3      M_A    0.0000
     25 H         120.4358  244.0317   78.4249 H         3      M_A    0.0000
     26 H         122.1104  244.5330   78.5259 H         3      M_A    0.0000
     27 H         120.5095  245.9258   80.5627 H         3      M_A    0.0000
     28 H         119.8229  246.2022   78.9687 H         3      M_A    0.0000
     29 C         121.6080  248.0168   80.0000 C.3       4      M_A    0.0000
     30 C         121.8407  247.8252   81.4955 C.3       4      M_A    0.0000
     31 O         122.4811  248.9729   82.0508 O.3       4      M_A    0.0000
     32 H         120.5942  248.3906   79.8173 H         4      M_A    0.0000
     33 H         122.2877  248.7873   79.6166 H         4      M_A    0.0000
     34 H         122.5224  246.9814   81.6625 H         4      M_A    0.0000
     35 H         120.9112  247.5799   82.0294 H         4      M_A    0.0000
     36 C         122.2555  250.1283   81.2733 C.3       5      M_A    0.0000
     37 C         122.7010  251.3951   81.9973 C.3       5      M_A    0.0000
     38 O         123.4674  252.2239   81.1246 O.3       5      M_A    0.0000
     39 H         121.1928  250.1922   81.0133 H         5      M_A    0.0000
     40 H         122.7942  250.0380   80.3224 H         5      M_A    0.0000
     41 H         123.3621  251.1345   82.8337 H         5      M_A    0.0000
     42 H         121.8521  251.9403   82.4346 H         5      M_A    0.0000
     43 C         124.1012  253.2749   81.8203 C.3       6      M_A    0.0000
     44 C         124.8914  254.1812   80.8813 C.3       6      M_A    0.0000
     45 O         125.2539  255.3910   81.5451 O.3       6      M_A    0.0000
     46 H         124.7596  252.8585   82.5911 H         6      M_A    0.0000
     47 H         123.3466  253.8651   82.3542 H         6      M_A    0.0000
     48 H         124.2649  254.4735   80.0290 H         6      M_A    0.0000
     49 H         125.7687  253.6712   80.4575 H         6      M_A    0.0000
     50 C         126.3038  256.0603   80.8816 C.3       7      M_A    0.0000
     51 C         126.2290  255.8739   79.3694 C.3       7      M_A    0.0000
     52 O         126.6621  257.0572   78.6999 O.3       7      M_A    0.0000
     53 H         127.2659  255.6994   81.2627 H         7      M_A    0.0000
     54 H         126.2647  257.1291   81.1240 H         7      M_A    0.0000
     55 H         125.1876  255.7111   79.0640 H         7      M_A    0.0000
     56 H         126.7895  254.9890   79.0348 H         7      M_A    0.0000
     57 C         128.0681  257.1729   78.6939 C.3       8      M_A    0.0000
     58 C         128.5196  258.5816   78.3211 C.3       8      M_A    0.0000
     59 O         129.9258  258.7222   78.5182 O.3       8      M_A    0.0000
     60 H         128.4923  256.4404   77.9978 H         8      M_A    0.0000
     61 H         128.4591  256.9101   79.6842 H         8      M_A    0.0000
     62 H         128.0412  259.3147   78.9829 H         8      M_A    0.0000
     63 H         128.2234  258.8521   77.2973 H         8      M_A    0.0000
     64 C         130.3737  260.0217   78.2001 C.3       9      M_A    0.0000
     65 C         130.1355  260.3601   76.7318 C.3       9      M_A    0.0000
     66 O         131.3011  260.9542   76.1624 O.3       9      M_A    0.0000
     67 H         131.4384  260.1112   78.4437 H         9      M_A    0.0000
     68 H         129.8563  260.7506   78.8354 H         9      M_A    0.0000
     69 H         129.3359  261.1068   76.6454 H         9      M_A    0.0000
     70 H         129.8024  259.4847   76.1557 H         9      M_A    0.0000
     71 C         132.2069  259.9830   75.6864 C.3      10      M_A    0.0000
     72 C         132.6341  260.2622   74.2488 C.3      10      M_A    0.0000
     73 O         134.0383  260.5071   74.1852 O.3      10      M_A    0.0000
     74 H         131.7507  258.9895   75.7620 H        10      M_A    0.0000
     75 H         133.0902  259.9599   76.3359 H        10      M_A    0.0000
     76 H         132.1456  261.1749   73.8843 H        10      M_A    0.0000
     77 H         132.3304  259.4566   73.5646 H        10      M_A    0.0000
     78 C         134.6071  259.9992   72.9983 C.3      11      M_A    0.0000
     79 C         135.2600  261.0988   72.1665 C.3      11      M_A    0.0000
     80 O         135.1387  260.8088   70.7747 O.3      11      M_A    0.0000
     81 H         133.8352  259.4866   72.4131 H        11      M_A    0.0000
     82 H         135.3525  259.2352   73.2499 H        11      M_A    0.0000
     83 H         136.3358  261.1399   72.3798 H        11      M_A    0.0000
     84 H         134.8598  262.0934   72.4110 H        11      M_A    0.0000
     85 C         136.0000  261.6085   69.9943 C.3      12      M_A    0.0000
     86 C         135.4988  263.0453   69.8881 C.3      12      M_A    0.0000
     87 O         136.4543  263.8570   69.2069 O.3      12      M_A    0.0000
     88 H         136.1047  261.1670   68.9967 H        12      M_A    0.0000
     89 H         137.0040  261.5996   70.4353 H        12      M_A    0.0000
     90 H         135.3872  263.4772   70.8908 H        12      M_A    0.0000
     91 H         134.5070  263.1024   69.4166 H        12      M_A    0.0000
     92 C         136.8922  263.2582   68.0069 C.3      13      M_A    0.0000
     93 C         137.0686  264.2847   66.8923 C.3      13      M_A    0.0000
     94 O         138.3072  264.0766   66.2151 O.3      13      M_A    0.0000
     95 H         136.1781  262.4846   67.7025 H        13      M_A    0.0000
     96 H         137.8419  262.7394   68.1844 H        13      M_A    0.0000
     97 H         137.1170  265.2948   67.3187 H        13      M_A    0.0000
     98 H         136.2188  264.2858   66.1944 H        13      M_A    0.0000
     99 C         138.5056  265.0164   65.1818 C.3      14      M_A    0.0000
    100 C         139.7328  264.6825   64.3394 C.3      14      M_A    0.0000
    101 O         140.0754  265.7844   63.5001 O.3      14      M_A    0.0000
    102 H         138.6012  266.0193   65.6132 H        14      M_A    0.0000
    103 H         137.6157  265.0466   64.5416 H        14      M_A    0.0000
    104 H         139.5087  263.8430   63.6690 H        14      M_A    0.0000
    105 H         140.5835  264.3630   64.9586 H        14      M_A    0.0000
    106 C         141.1826  265.4928   62.6759 C.3      15      M_A    0.0000
    107 C         142.5045  265.6897   63.4113 C.3      15      M_A    0.0000
    108 O         143.6003  265.5784   62.5042 O.3      15      M_A    0.0000
    109 H         141.1475  266.1232   61.7801 H        15      M_A    0.0000
    110 H         141.1089  264.4581   62.3200 H        15      M_A    0.0000
    111 H         142.6397  264.8952   64.1562 H        15      M_A    0.0000
    112 H         142.5305  266.6389   63.9658 H        15      M_A    0.0000
    113 C         144.7955  265.2243   63.1648 C.3      16      M_A    0.0000
    114 C         145.7663  266.3981   63.2487 C.3      16      M_A    0.0000
    115 O         147.0961  265.9297   63.4680 O.3      16      M_A    0.0000
    116 H         145.2632  264.3796   62.6465 H        16      M_A    0.0000
    117 H         144.5610  264.8667   64.1747 H        16      M_A    0.0000
    118 H         145.5161  267.0291   64.1110 H        16      M_A    0.0000
    119 H         145.7048  267.0480   62.3638 H        16      M_A    0.0000
    120 C         147.4192  264.8492   62.6203 C.3      17      M_A    0.0000
    121 C         148.7269  265.0872   61.8716 C.3      17      M_A    0.0000
    122 O         149.6575  264.0422   62.1503 O.3      17      M_A    0.0000
    123 H         146.5998  264.6826   61.9119 H        17      M_A    0.0000
    124 H         147.4962  263.9308   63.2146 H        17      M_A    0.0000
    125 H         149.1939  266.0167   62.2213 H        17      M_A    0.0000
    126 H         148.5665  265.2113   60.7908 H        17      M_A    0.0000
    127 C         150.9567  264.3623   61.7033 C.3      18      M_A    0.0000
    128 C         150.9297  265.3583   60.5481 C.3      18      M_A    0.0000
    129 O         152.2283  265.9099   60.3358 O.3      18      M_A    0.0000
    130 H         151.4765  263.4453   61.4034 H        18      M_A    0.0000
    131 H         151.5358  264.7790   62.5362 H        18      M_A    0.0000
    132 H         150.2738  266.2021   60.7975 H        18      M_A    0.0000
    133 H         150.5218  264.9129   59.6292 H        18      M_A    0.0000
    134 C         153.0106  265.1004   59.4855 C.3      19      M_A    0.0000
    135 C         154.4944  265.4400   59.5863 C.3      19      M_A    0.0000
    136 O         155.2170  264.8380   58.5133 O.3      19      M_A    0.0000
    137 H         152.6635  265.2132   58.4522 H        19      M_A    0.0000
    138 H         152.8552  264.0457   59.7429 H        19      M_A    0.0000
    139 H         154.9115  265.0215   60.5112 H        19      M_A    0.0000
    140 H         154.6668  266.5249   59.6345 H        19      M_A    0.0000
    141 C         156.5935  264.7291   58.8025 C.3      20      M_A    0.0000
    142 C         157.0801  265.8744   59.6849 C.3      20      M_A    0.0000
    143 O         158.4732  265.7341   59.9597 O.3      20      M_A    0.0000
    144 H         157.1627  264.7013   57.8664 H        20      M_A    0.0000
    145 H         156.7859  263.7716   59.3014 H        20      M_A    0.0000
    146 H         156.5699  265.8407   60.6560 H        20      M_A    0.0000
    147 H         156.8484  266.8573   59.2498 H        20      M_A    0.0000
    148 C         159.2432  265.7207   58.7777 C.3      21      M_A    0.0000
    149 C         160.5244  266.5355   58.9262 C.3      21      M_A    0.0000
    150 O         161.5446  265.7512   59.5426 O.3      21      M_A    0.0000
    151 H         158.6422  266.1044   57.9455 H        21      M_A    0.0000
    152 H         159.4928  264.6850   58.5176 H        21      M_A    0.0000
    153 H         160.3486  267.3901   59.5919 H        21      M_A    0.0000
    154 H         160.8588  266.9565   57.9670 H        21      M_A    0.0000
    155 C         162.3910  266.5347   60.3550 C.3      22      M_A    0.0000
    156 C         163.8439  266.0781   60.2663 C.3      22      M_A    0.0000
    157 O         164.6347  266.7393   61.2529 O.3      22      M_A    0.0000
    158 H         162.0418  266.4940   61.3930 H        22      M_A    0.0000
    159 H         162.3155  267.5859   60.0519 H        22      M_A    0.0000
    160 H         164.2658  266.3610   59.2935 H        22      M_A    0.0000
    161 H         163.9376  264.9847   60.3359 H        22      M_A    0.0000
    162 C         166.0060  266.4371   61.1164 C.3      23      M_A    0.0000
    163 C         166.2968  264.9710   61.4215 C.3      23      M_A    0.0000
    164 O         167.5214  264.5685   60.8098 O.3      23      M_A    0.0000
    165 H         166.5910  267.0869   61.7771 H        23      M_A    0.0000
    166 H         166.3308  266.6731   60.0959 H        23      M_A    0.0000
    167 H         165.5132  264.3366   60.9880 H        23      M_A    0.0000
    168 H         166.2954  264.7665   62.5019 H        23      M_A    0.0000
    169 C         168.6370  265.1929   61.4065 C.3      24      M_A    0.0000
    170 C         169.9274  264.4246   61.1389 C.3      24      M_A    0.0000
    171 O         170.9543  265.3131   60.7009 O.3      24      M_A    0.0000
    172 H         168.4681  265.2899   62.4850 H        24      M_A    0.0000
    173 H         168.7302  266.2158   61.0222 H        24      M_A    0.0000
    174 H         169.7728  263.7070   60.3232 H        24      M_A    0.0000
    175 H         170.2446  263.8349   62.0112 H        24      M_A    0.0000
    176 C         172.2382  264.7487   60.8539 C.3      25      M_A    0.0000
    177 C         172.2283  263.2427   60.6106 C.3      25      M_A    0.0000
    178 O         173.4008  262.8452   59.9014 O.3      25      M_A    0.0000
    179 H         172.6174  264.9697   61.8580 H        25      M_A    0.0000
    180 H         172.9332  265.2307   60.1558 H        25      M_A    0.0000
    181 H         171.3767  262.9728   59.9731 H        25      M_A    0.0000
    182 H         172.1057  262.6750   61.5443 H        25      M_A    0.0000
    183 C         173.4218  263.3622   58.5889 C.3      26      M_A    0.0000
    184 C         174.5481  262.7552   57.7581 C.3      26      M_A    0.0000
    185 O         175.5826  263.7146   57.5455 O.3      26      M_A    0.0000
    186 H         173.5219  264.4529   58.6271 H        26      M_A    0.0000
    187 H         172.4581  263.1642   58.1044 H        26      M_A    0.0000
    188 H         174.1732  262.4814   56.7637 H        26      M_A    0.0000
    189 H         174.9377  261.8294   58.2056 H        26      M_A    0.0000
    190 C         176.6038  263.6095   58.5133 C.3      27      M_A    0.0000
    191 C         177.3859  262.3073   58.3734 C.3      27      M_A    0.0000
    192 O         178.5277  262.3178   59.2289 O.3      27      M_A    0.0000
    193 H         176.1670  263.6856   59.5154 H        27      M_A    0.0000
    194 H         177.2866  264.4622   58.4159 H        27      M_A    0.0000
    195 H         177.7692  262.2097   57.3497 H        27      M_A    0.0000
    196 H         176.7534  261.4254   58.5503 H        27      M_A    0.0000
    197 C         178.9758  261.0129   59.5235 C.3      28      M_A    0.0000
    198 C         178.8509  260.0850   58.3191 C.3      28      M_A    0.0000
    199 O         180.0148  259.2687   58.1966 O.3      28      M_A    0.0000
    200 H         178.4080  260.6142   60.3718 H        28      M_A    0.0000
    201 H         180.0214  261.0526   59.8518 H        28      M_A    0.0000
    202 H         178.7912  260.6762   57.3964 H        28      M_A    0.0000
    203 H         177.9328  259.4810   58.3573 H        28      M_A    0.0000
    204 C         179.9177  258.0951   58.9734 C.3      29      M_A    0.0000
    205 C         181.1534  257.2129   58.8251 C.3      29      M_A    0.0000
    206 O         182.1189  257.5362   59.8247 O.3      29      M_A    0.0000
    207 H         179.0172  257.5403   58.6867 H        29      M_A    0.0000
    208 H         179.7825  258.3664   60.0273 H        29      M_A    0.0000
    209 H         181.6355  257.4047   57.8580 H        29      M_A    0.0000
    210 H         180.8999  256.1429   58.8355 H        29      M_A    0.0000
    211 C         183.3799  257.8271   59.2628 C.3      30      M_A    0.0000
    212 C         183.9359  256.6452   58.4748 C.3      30      M_A    0.0000
    213 O         184.8620  257.0964   57.4876 O.3      30      M_A    0.0000
    214 H         184.0764  258.1161   60.0580 H        30      M_A    0.0000
    215 H         183.2926  258.7005   58.6055 H        30      M_A    0.0000
    216 H         183.1252  256.1445   57.9303 H        30      M_A    0.0000
    217 H         184.3808  255.8840   59.1320 H        30      M_A    0.0000
    218 C         184.9496  258.5041   57.4536 C.3      31      M_A    0.0000
    219 C         185.7564  258.9934   56.2550 C.3      31      M_A    0.0000
    220 O         186.9034  259.7217   56.6907 O.3      31      M_A    0.0000
    221 H         185.3968  258.8651   58.3867 H        31      M_A    0.0000
    222 H         183.9400  258.9308   57.4177 H        31      M_A    0.0000
    223 H         185.1552  259.6930   55.6603 H        31      M_A    0.0000
    224 H         186.0299  258.1708   55.5784 H        31      M_A    0.0000
    225 C         187.9389  259.6935   55.7330 C.3      32      M_A    0.0000
    226 C         188.5268  258.2947   55.5744 C.3      32      M_A    0.0000
    227 O         188.9538  258.0836   54.2294 O.3      32      M_A    0.0000
    228 H         188.7215  260.4051   56.0196 H        32      M_A    0.0000
    229 H         187.5519  260.0426   54.7681 H        32      M_A    0.0000
    230 H         187.7552  257.5402   55.7744 H        32      M_A    0.0000
    231 H         189.3370  258.1040   56.2930 H        32      M_A    0.0000
    232 C         187.8666  258.0567   53.3309 C.3      33      M_A    0.0000
    233 C         187.8658  256.7910   52.4792 C.3      33      M_A    0.0000
    234 O         186.6926  256.7368   51.6690 O.3      33      M_A    0.0000
    235 H         187.8989  258.9461   52.6913 H        33      M_A    0.0000
    236 H         186.9276  258.1233   53.8936 H        33      M_A    0.0000
    237 H         187.8342  255.9053   53.1263 H        33      M_A    0.0000
    238 H         188.7809  256.6991   51.8764 H        33      M_A    0.0000
    239 C         186.5636  255.4943   51.0133 C.3      34      M_A    0.0000
    240 C         187.2750  255.4887   49.6638 C.3      34      M_A    0.0000
    241 O         187.9225  254.2358   49.4475 O.3      34      M_A    0.0000
    242 H         185.5014  255.2573   50.8848 H        34      M_A    0.0000
    243 H         186.9749  254.7022   51.6505 H        34      M_A    0.0000
    244 H         188.0660  256.2495   49.6552 H        34      M_A    0.0000
    245 H         186.5948  255.7429   48.8381 H        34      M_A    0.0000
    246 C         187.0420  253.2758   48.9057 C.3      35      M_A    0.0000
    247 C         187.7776  252.0106   48.4752 C.3      35      M_A    0.0000
    248 O         187.3296  250.8905   49.2372 O.3      35      M_A    0.0000
    249 H         186.5043  253.7114   48.0559 H        35      M_A    0.0000
    250 H         186.2770  253.0228   49.6496 H        35      M_A    0.0000
    251 H         188.8506  252.1138   48.6813 H        35      M_A    0.0000
    252 H         187.6881  251.8291   47.3943 H        35      M_A    0.0000
    253 C         188.1183  249.7449   49.0010 C.3      36      M_A    0.0000
    254 C         189.2356  250.0220   48.0000 C.3      36      M_A    0.0000
    255 O         190.2724  249.0504   48.1294 O.3      36      M_A    0.0000
    256 H         187.4800  248.9291   48.6430 H        36      M_A    0.0000
    257 H         188.5490  249.3980   49.9479 H        36      M_A    0.0000
    258 H         189.6966  250.9946   48.2144 H        36      M_A    0.0000
    259 H         188.8597  250.0807   46.9682 H        36      M_A    0.0000
    260 C         191.3355  249.2939   47.2346 C.3      37      M_A    0.0000
    261 C         191.7674  248.0239   46.5080 C.3      37      M_A    0.0000
    262 O         192.5242  248.3497   45.3431 O.3      37      M_A    0.0000
    263 H         192.1814  249.7264   47.7809 H        37      M_A    0.0000
    264 H         191.0293  250.0514   46.5031 H        37      M_A    0.0000
    265 H         190.8840  247.4751   46.1576 H        37      M_A    0.0000
    266 H         192.3143  247.3363   47.1692 H        37      M_A    0.0000
    267 C         192.4743  247.3207   44.3792 C.3      38      M_A    0.0000
    268 C         193.6411  246.3490   44.5259 C.3      38      M_A    0.0000
    269 O         193.7593  245.5334   43.3611 O.3      38      M_A    0.0000
    270 H         192.4687  247.7602   43.3753 H        38      M_A    0.0000
    271 H         191.5268  246.7770   44.4761 H        38      M_A    0.0000
    272 H         193.4543  245.6646   45.3633 H        38      M_A    0.0000
    273 H         194.5829  246.8674   44.7567 H        38      M_A    0.0000
    274 C         195.0019  244.8674   43.3098 C.3      39      M_A    0.0000
    275 C         196.1212  245.7907   42.8388 C.3      39      M_A    0.0000
    276 O         197.3936  245.1846   43.0617 O.3      39      M_A    0.0000
    277 H         194.9230  243.9968   42.6489 H        39      M_A    0.0000
    278 H         195.2439  244.4714   44.3034 H        39      M_A    0.0000
    279 H         196.1141  246.7170   43.4275 H        39      M_A    0.0000
    280 H         195.9927  246.0924   41.7892 H        39      M_A    0.0000
    281 C         197.6217  244.1036   42.1844 C.3      40      M_A    0.0000
    282 C         199.1046  243.7613   42.0797 C.3      40      M_A    0.0000
    283 O         199.2750  242.4189   41.6274 O.3      40      M_A    0.0000
    284 H         197.2155  244.3437   41.1953 H        40      M_A    0.0000
    285 H         197.0644  243.2266   42.5350 H        40      M_A    0.0000
    286 H         199.5710  243.8134   43.0718 H        40      M_A    0.0000
    287 H         199.6490  244.4762   41.4460 H        40      M_A    0.0000
    288 C         200.6376  242.0708   41.5160 C.3      41      M_A    0.0000
    289 C         201.0049  241.6655   40.0920 C.3      41      M_A    0.0000
    290 O         202.4210  241.5573   39.9546 O.3      41      M_A    0.0000
    291 H         200.8654  241.2574   42.2142 H        41      M_A    0.0000
    292 H         201.2569  242.9200   41.8293 H        41      M_A    0.0000
    293 H         200.6860  242.4445   39.3877 H        41      M_A    0.0000
    294 H         200.4944  240.7424   39.7813 H        41      M_A    0.0000
    295 C         202.7822  240.7534   38.8529 C.3      42      M_A    0.0000
    296 C         202.4008  239.2921   39.0679 C.3      42      M_A    0.0000
    297 O         202.8695  238.4906   37.9845 O.3      42      M_A    0.0000
    298 H         203.8594  240.8432   38.6724 H        42      M_A    0.0000
    299 H         202.2917  241.1335   37.9487 H        42      M_A    0.0000
    300 H         201.3083  239.1884   39.0773 H        42      M_A    0.0000
    301 H         202.7541  238.9120   40.0375 H        42      M_A    0.0000
    302 C         204.1371  237.9326   38.2534 C.3      43      M_A    0.0000
    303 C         204.7045  237.2029   37.0399 C.3      43      M_A    0.0000
    304 O         205.9367  236.5655   37.3735 O.3      43      M_A    0.0000
    305 H         204.0623  237.2502   39.1076 H        43      M_A    0.0000
    306 H         204.8267  238.7277   38.5616 H        43      M_A    0.0000
    307 H         204.9359  237.9233   36.2451 H        43      M_A    0.0000
    308 H         203.9826  236.4930   36.6109 H        43      M_A    0.0000
    309 C         206.0945  235.3387   36.6949 C.3      44      M_A    0.0000
    310 C         205.7238  235.4549   35.2197 C.3      44      M_A    0.0000
    311 O         206.4379  234.4892   34.4494 O.3      44      M_A    0.0000
    312 H         205.4832  234.5704   37.1818 H        44      M_A    0.0000
    313 H         207.1339  235.0020   36.7887 H        44      M_A    0.0000
    314 H         206.0237  236.4381   34.8353 H        44      M_A    0.0000
    315 H         204.6384  235.3804   35.0601 H        44      M_A    0.0000
    316 C         205.7344  233.2702   34.3518 C.3      45      M_A    0.0000
    317 C         206.5864  232.1725   33.7225 C.3      45      M_A    0.0000
    318 O         206.0746  230.8859   34.0670 O.3      45      M_A    0.0000
    319 H         204.8185  233.4224   33.7696 H        45      M_A    0.0000
    320 H         205.4085  232.9572   35.3511 H        45      M_A    0.0000
    321 H         207.6070  232.2153   34.1236 H        45      M_A    0.0000
    322 H         206.6785  232.2952   32.6336 H        45      M_A    0.0000
    323 C         204.8618  230.6075   33.4024 C.3      46      M_A    0.0000
    324 C         204.8004  229.1631   32.9154 C.3      46      M_A    0.0000
    325 O         203.5923  228.9324   32.1921 O.3      46      M_A    0.0000
    326 H         204.7391  231.2986   32.5607 H        46      M_A    0.0000
    327 H         204.0221  230.8045   34.0797 H        46      M_A    0.0000
    328 H         204.7803  228.4798   33.7740 H        46      M_A    0.0000
    329 H         205.6866  228.8890   32.3250 H        46      M_A    0.0000
    330 C         203.8025  228.1067   31.0677 C.3      47      M_A    0.0000
    331 C         204.5698  226.8391   31.4305 C.3      47      M_A    0.0000
    332 O         204.1637  225.7553   30.5959 O.3      47      M_A    0.0000
    333 H         204.3401  228.6696   30.2962 H        47      M_A    0.0000
    334 H         202.8348  227.8388   30.6269 H        47      M_A    0.0000
    335 H         204.3329  226.5405   32.4596 H        47      M_A    0.0000
    336 H         205.6582  226.9921   31.3974 H        47      M_A    0.0000
    337 C         203.3306  226.1868   29.5424 C.3      48      M_A    0.0000
    338 C         202.3583  225.0957   29.1049 C.3      48      M_A    0.0000
    339 O         201.1046  225.6662   28.7323 O.3      48      M_A    0.0000
    340 H         203.9482  226.5081   28.6961 H        48      M_A    0.0000
    341 H         202.7704  227.0740   29.8614 H        48      M_A    0.0000
    342 H         202.1516  224.4206   29.9451 H        48      M_A    0.0000
    343 H         202.7748  224.4697   28.3026 H        48      M_A    0.0000
    344 C         200.1385  224.6763   28.4550 C.3      49      M_A    0.0000
    345 C         198.8286  225.2842   27.9633 C.3      49      M_A    0.0000
    346 O         197.9887  224.2738   27.4068 O.3      49      M_A    0.0000
    347 H         199.9648  224.0731   29.3534 H        49      M_A    0.0000
    348 H         200.5315  223.9858   27.6990 H        49      M_A    0.0000
    349 H         199.0285  225.9983   27.1543 H        49      M_A    0.0000
    350 H         198.3146  225.8505   28.7534 H        49      M_A    0.0000
    351 C         197.2055  223.6391   28.3936 C.3      50      M_A    0.0000
    352 C         196.9424  222.1753   28.0542 C.3      50      M_A    0.0000
    353 O         196.0792  221.5863   29.0257 O.3      50      M_A    0.0000
    354 H         196.2589  224.1787   28.5120 H        50      M_A    0.0000
    355 H         197.7152  223.7074   29.3623 H        50      M_A    0.0000
    356 H         197.8812  221.6083   28.0924 H        50      M_A    0.0000
    357 H         196.5503  222.0526   27.0341 H        50      M_A    0.0000
    358 C         195.3558  220.4976   28.4947 C.3      51      M_A    0.0000
    359 C         196.2193  219.6354   27.5792 C.3      51      M_A    0.0000
    360 O         195.5329  218.4329   27.2348 O.3      51      M_A    0.0000
    361 H         194.4800  220.8707   27.9518 H        51      M_A    0.0000
    362 H         194.9639  219.8858   29.3161 H        51      M_A    0.0000
    363 H         197.1319  219.3287   28.1061 H        51      M_A    0.0000
    364 H         196.5499  220.1851   26.6861 H        51      M_A    0.0000
    365 C         195.5061  218.2242   25.8397 C.3      52      M_A    0.0000
    366 C         196.0416  216.8467   25.4619 C.3      52      M_A    0.0000
    367 O         195.6419  216.5037   24.1358 O.3      52      M_A    0.0000
    368 H         196.0873  219.0085   25.3416 H        52      M_A    0.0000
    369 H         194.4775  218.3330   25.4752 H        52      M_A    0.0000
    370 H         195.6083  216.0836   26.1210 H        52      M_A    0.0000
    371 H         197.1318  216.7792   25.5884 H        52      M_A    0.0000
    372 C         195.9556  215.1644   23.8223 C.3      53      M_A    0.0000
    373 C         197.4425  214.8736   24.0002 C.3      53      M_A    0.0000
    374 O         197.6550  213.4790   24.2142 O.3      53      M_A    0.0000
    375 H         195.6457  214.9476   22.7937 H        53      M_A    0.0000
    376 H         195.3694  214.4939   24.4621 H        53      M_A    0.0000
    377 H         197.8183  215.3832   24.8966 H        53      M_A    0.0000
    378 H         198.0403  215.2515   23.1582 H        53      M_A    0.0000
    379 C         197.7664  212.7718   22.9986 C.3      54      M_A    0.0000
    380 C         198.2570  211.3438   23.2161 C.3      54      M_A    0.0000
    381 O         197.2943  210.4076   22.7338 O.3      54      M_A    0.0000
    382 H         198.4434  213.3084   22.3242 H        54      M_A    0.0000
    383 H         196.7914  212.7545   22.4968 H        54      M_A    0.0000
    384 H         198.3675  211.1461   24.2899 H        54      M_A    0.0000
    385 H         199.2475  211.1754   22.7690 H        54      M_A    0.0000
    386 C         197.0745  209.3595   23.6522 C.3      55      M_A    0.0000
    387 C         197.4331  208.0008   23.0586 C.3      55      M_A    0.0000
    388 O         197.6462  207.0447   24.0960 O.3      55      M_A    0.0000
    389 H         196.0272  209.3697   23.9748 H        55      M_A    0.0000
    390 H         197.6705  209.5363   24.5556 H        55      M_A    0.0000
    391 H         198.3790  208.0720   22.5066 H        55      M_A    0.0000
    392 H         196.6803  207.6551   22.3354 H        55      M_A    0.0000
    393 C         197.6337  205.7228   23.6032 C.3      56      M_A    0.0000
    394 C         198.1499  204.7271   24.6372 C.3      56      M_A    0.0000
    395 O         197.6859  203.4117   24.3368 O.3      56      M_A    0.0000
    396 H         198.2348  205.6680   22.6885 H        56      M_A    0.0000
    397 H         196.6119  205.4536   23.3097 H        56      M_A    0.0000
    398 H         197.7493  204.9760   25.6282 H        56      M_A    0.0000
    399 H         199.2450  204.7605   24.7310 H        56      M_A    0.0000
    400 C         198.7323  202.4659   24.3656 C.3      57      M_A    0.0000
    401 C         198.2481  201.0723   23.9774 C.3      57      M_A    0.0000
    402 O         199.3485  200.2556   23.5800 O.3      57      M_A    0.0000
    403 H         199.1816  202.4482   25.3650 H        57      M_A    0.0000
    404 H         199.5288  202.7835   23.6820 H        57      M_A    0.0000
    405 H         197.5826  201.1369   23.1072 H        57      M_A    0.0000
    406 H         197.6610  200.6016   24.7793 H        57      M_A    0.0000
    407 C         199.1891  198.9183   24.0000 C.3      58      M_A    0.0000
    408 C         198.9400  197.9801   22.8232 C.3      58      M_A    0.0000
    409 O         199.2731  196.6385   23.1769 O.3      58      M_A    0.0000
    410 H         198.3631  198.8566   24.7177 H        58      M_A    0.0000
    411 H         200.0861  198.5982   24.5436 H        58      M_A    0.0000
    412 H         199.5957  198.2494   21.9853 H        58      M_A    0.0000
    413 H         197.9103  198.0573   22.4451 H        58      M_A    0.0000
    414 C         198.1913  195.9728   23.7907 C.3      59      M_A    0.0000
    415 C         197.0391  195.7455   22.8171 C.3      59      M_A    0.0000
    416 O         196.7244  194.3563   22.7337 O.3      59      M_A    0.0000
    417 H         197.8498  196.5514   24.6565 H        59      M_A    0.0000
    418 H         198.5345  195.0097   24.1875 H        59      M_A    0.0000
    419 H         197.3368  196.0549   21.8071 H        59      M_A    0.0000
    420 H         196.1561  196.3478   23.0754 H        59      M_A    0.0000
    421 C         197.7338  193.5535   23.3055 C.3      60      M_A    0.0000
    422 C         197.2292  192.1497   23.6247 C.3      60      M_A    0.0000
    423 O         197.6925  191.2198   22.6467 O.3      60      M_A    0.0000
    424 H         198.1150  194.0365   24.2124 H        60      M_A    0.0000
    425 H         198.5842  193.4920   22.6158 H        60      M_A    0.0000
    426 H         196.1330  192.1267   23.5763 H        60      M_A    0.0000
    427 H         197.4987  191.8364   24.6436 H        60      M_A    0.0000
    428 C         197.6884  189.8966   23.1362 C.3      61      M_A    0.0000
    429 C         196.4892  189.6302   24.0406 C.3      61      M_A    0.0000
    430 O         195.7602  188.4937   23.5791 O.3      61      M_A    0.0000
    431 H         198.6226  189.7036   23.6757 H        61      M_A    0.0000
    432 H         197.6768  189.1964   22.2923 H        61      M_A    0.0000
    433 H         195.7944  190.4789   23.9997 H        61      M_A    0.0000
    434 H         196.7832  189.5241   25.0948 H        61      M_A    0.0000
    435 C         195.1485  188.7333   22.3306 C.3      62      M_A    0.0000
    436 C         195.1897  187.5005   21.4330 C.3      62      M_A    0.0000
    437 O         196.0950  187.7037   20.3491 O.3      62      M_A    0.0000
    438 H         195.6413  189.5793   21.8384 H        62      M_A    0.0000
    439 H         194.1076  189.0402   22.4883 H        62      M_A    0.0000
    440 H         194.2030  187.3330   20.9827 H        62      M_A    0.0000
    441 H         195.4292  186.5875   21.9972 H        62      M_A    0.0000
    442 C         196.9924  186.6248   20.2045 C.3      63      M_A    0.0000
    443 C         196.7103  185.5136   21.2109 C.3      63      M_A    0.0000
    444 O         197.2978  184.2879   20.7771 O.3      63      M_A    0.0000
    445 H         198.0207  186.9872   20.3158 H        63      M_A    0.0000
    446 H         196.9212  186.2263   19.1853 H        63      M_A    0.0000
    447 H         195.6298  185.3318   21.2736 H        63      M_A    0.0000
    448 H         197.0360  185.7840   22.2258 H        63      M_A    0.0000
    449 C         196.5097  183.1728   21.1317 C.3      64      M_A    0.0000
    450 C         197.2874  181.8663   21.0080 C.3      64      M_A    0.0000
    451 O         196.6617  180.8397   21.7764 O.3      64      M_A    0.0000
    452 H         195.6134  183.1436   20.5018 H        64      M_A    0.0000
    453 H         196.1515  183.2929   22.1612 H        64      M_A    0.0000
    454 H         198.2955  181.9907   21.4235 H        64      M_A    0.0000
    455 H         197.4221  181.5644   19.9592 H        64      M_A    0.0000
    456 C         196.3161  179.7258   20.9827 C.3      65      M_A    0.0000
    457 C         196.8054  178.4180   21.5971 C.3      65      M_A    0.0000
    458 O         196.2075  177.3033   20.9369 O.3      65      M_A    0.0000
    459 H         196.7300  179.8518   19.9759 H        65      M_A    0.0000
    460 H         195.2270  179.6907   20.8593 H        65      M_A    0.0000
    461 H         196.4920  178.3581   22.6472 H        65      M_A    0.0000
    462 H         197.9028  178.3486   21.5993 H        65      M_A    0.0000
    463 C         196.8512  176.0914   21.2643 C.3      66      M_A    0.0000
    464 C         198.2742  176.0392   20.7169 C.3      66      M_A    0.0000
    465 O         198.9590  174.8925   21.2189 O.3      66      M_A    0.0000
    466 H         196.2640  175.2500   20.8793 H        66      M_A    0.0000
    467 H         196.8706  175.9725   22.3543 H        66      M_A    0.0000
    468 H         198.8405  176.9126   21.0644 H        66      M_A    0.0000
    469 H         198.2949  176.0765   19.6181 H        66      M_A    0.0000
    470 C         199.6774  174.2239   20.2055 C.3      67      M_A    0.0000
    471 C         200.6792  173.2287   20.7827 C.3      67      M_A    0.0000
    472 O         200.3400  171.8985   20.3936 O.3      67      M_A    0.0000
    473 H         200.1910  174.9592   19.5756 H        67      M_A    0.0000
    474 H         198.9748  173.7000   19.5464 H        67      M_A    0.0000
    475 H         200.6366  173.2490   21.8791 H        67      M_A    0.0000
    476 H         201.7143  173.4805   20.5104 H        67      M_A    0.0000
    477 C         200.5271  170.9789   21.4471 C.3      68      M_A    0.0000
    478 C         201.0041  169.6224   20.9379 C.3      68      M_A    0.0000
    479 O         201.5606  168.8572   22.0059 O.3      68      M_A    0.0000
    480 H         199.5910  170.8681   22.0062 H        68      M_A    0.0000
    481 H         201.2574  171.3838   22.1581 H        68      M_A    0.0000
    482 H         201.8100  169.7604   20.2057 H        68      M_A    0.0000
    483 H         200.2061  169.0735   20.4172 H        68      M_A    0.0000
    484 C         201.2681  167.4832   21.8760 C.3      69      M_A    0.0000
    485 C         202.1955  166.6228   22.7286 C.3      69      M_A    0.0000
    486 O         201.5540  165.3981   23.0814 O.3      69      M_A    0.0000
    487 H         201.3407  167.1921   20.8220 H        69      M_A    0.0000
    488 H         200.2263  167.3037   22.1678 H        69      M_A    0.0000
    489 H         202.4187  167.1363   23.6725 H        69      M_A    0.0000
    490 H         203.1635  166.4481   22.2372 H        69      M_A    0.0000
    491 C         202.2833  164.2756   22.6360 C.3      70      M_A    0.0000
    492 C         201.8698  163.0032   23.3690 C.3      70      M_A    0.0000
    493 O         202.9819  162.1187   23.4972 O.3      70      M_A    0.0000
    494 H         203.3554  164.4601   22.7686 H        70      M_A    0.0000
    495 H         202.1302  164.1465   21.5577 H        70      M_A    0.0000
    496 H         201.1136  162.4641   22.7843 H        70      M_A    0.0000
    497 H         201.4082  163.2201   24.3432 H        70      M_A    0.0000
    498 C         202.6134  160.8941   24.0930 C.3      71      M_A    0.0000
    499 C         202.0438  161.0937   25.4940 C.3      71      M_A    0.0000
    500 O         201.0407  160.1165   25.7676 O.3      71      M_A    0.0000
    501 H         203.4829  160.2278   24.1269 H        71      M_A    0.0000
    502 H         201.8716  160.3907   23.4614 H        71      M_A    0.0000
    503 H         201.5479  162.0706   25.5601 H        71      M_A    0.0000
    504 H         202.8302  161.0954   26.2626 H        71      M_A    0.0000
    505 C         200.4659  160.2963   27.0433 C.3      72      M_A    0.0000
    506 C         199.6588  161.5882   27.1248 C.3      72      M_A    0.0000
    507 O         198.5784  161.4431   28.0455 O.3      72      M_A    0.0000
    508 H         201.2551  160.2917   27.8038 H        72      M_A    0.0000
    509 H         199.8187  159.4417   27.2746 H        72      M_A    0.0000
    510 H         199.2051  161.8075   26.1499 H        72      M_A    0.0000
    511 H         200.2901  162.4540   27.3719 H        72      M_A    0.0000
    512 C         198.6232  160.2032   28.7171 C.3      73      M_A    0.0000
    513 C         197.7712  160.2125   29.9825 C.3      73      M_A    0.0000
    514 O         197.0022  159.0141   30.0738 O.3      73      M_A    0.0000
    515 H         199.6629  159.9563   28.9599 H        73      M_A    0.0000
    516 H         198.2742  159.4115   28.0432 H        73      M_A    0.0000
    517 H         197.0499  161.0387   29.9413 H        73      M_A    0.0000
    518 H         198.3763  160.3773   30.8857 H        73      M_A    0.0000
    519 C         196.8208  158.6069   31.4123 C.3      74      M_A    0.0000
    520 C         195.5170  157.8372   31.5992 C.3      74      M_A    0.0000
    521 O         195.7381  156.6665   32.3843 O.3      74      M_A    0.0000
    522 H         196.8419  159.4850   32.0676 H        74      M_A    0.0000
    523 H         197.6666  157.9802   31.7198 H        74      M_A    0.0000
    524 H         195.1454  157.4899   30.6267 H        74      M_A    0.0000
    525 H         194.7231  158.4680   32.0244 H        74      M_A    0.0000
    526 C         194.5300  156.1232   32.8695 C.3      75      M_A    0.0000
    527 C         194.4771  154.6090   32.6915 C.3      75      M_A    0.0000
    528 O         193.7397  154.0080   33.7550 O.3      75      M_A    0.0000
    529 H         193.6846  156.5965   32.3573 H        75      M_A    0.0000
    530 H         194.4186  156.3739   33.9313 H        75      M_A    0.0000
    531 H         195.4904  154.1909   32.7449 H        75      M_A    0.0000
    532 H         194.0780  154.3231   31.7076 H        75      M_A    0.0000
    533 C         193.1696  152.7767   33.3689 C.3      76      M_A    0.0000
    534 C         193.5711  151.6457   34.3106 C.3      76      M_A    0.0000
    535 O         192.4162  150.9397   34.7617 O.3      76      M_A    0.0000
    536 H         193.4693  152.5413   32.3414 H        76      M_A    0.0000
    537 H         192.0771  152.8713   33.3506 H        76      M_A    0.0000
    538 H         194.0495  152.0586   35.2078 H        76      M_A    0.0000
    539 H         194.3078  150.9698   33.8527 H        76      M_A    0.0000
    540 C         192.7589  149.7566   35.4497 C.3      77      M_A    0.0000
    541 C         191.5239  149.0116   35.9467 C.3      77      M_A    0.0000
    542 O         191.7483  147.6027   35.9203 O.3      77      M_A    0.0000
    543 H         193.4201  150.0003   36.2890 H        77      M_A    0.0000
    544 H         193.3406  149.1054   34.7862 H        77      M_A    0.0000
    545 H         190.6775  149.2011   35.2743 H        77      M_A    0.0000
    546 H         191.2084  149.3546   36.9426 H        77      M_A    0.0000
    547 C         190.7899  146.9036   36.6839 C.3      78      M_A    0.0000
    548 C         189.3667  147.2185   36.2339 C.3      78      M_A    0.0000
    549 O         188.5293  146.0743   36.3936 O.3      78      M_A    0.0000
    550 H         190.9172  147.1496   37.7443 H        78      M_A    0.0000
    551 H         190.9735  145.8257   36.5998 H        78      M_A    0.0000
    552 H         189.3580  147.4593   35.1632 H        78      M_A    0.0000
    553 H         188.9561  148.0982   36.7503 H        78      M_A    0.0000
    554 C         188.8966  145.0284   35.5210 C.3      79      M_A    0.0000
    555 C         188.5734  143.6587   36.1098 C.3      79      M_A    0.0000
    556 O         187.3378  143.1716   35.5883 O.3      79      M_A    0.0000
    557 H         189.9659  145.1018   35.2921 H        79      M_A    0.0000
    558 H         188.3739  145.1517   34.5649 H        79      M_A    0.0000
    559 H         188.4380  143.7413   37.1957 H        79      M_A    0.0000
    560 H         189.3914  142.9402   35.9557 H        79      M_A    0.0000
    561 C         186.6478  142.3769   36.5278 C.3      80      M_A    0.0000
    562 C         186.1946  143.1914   37.7355 C.3      80      M_A    0.0000
    563 O         185.0021  142.6380   38.2902 O.3      80      M_A    0.0000
    564 H         187.2894  141.5478   36.8468 H        80      M_A    0.0000
    565 H         185.7770  141.9167   36.0455 H        80      M_A    0.0000
    566 H         185.9438  144.2135   37.4241 H        80      M_A    0.0000
    567 H         186.9885  143.2860   38.4905 H        80      M_A    0.0000
    568 C         184.9848  141.2302   38.2003 C.3      81      M_A    0.0000
    569 C         184.0164  140.6098   39.2026 C.3      81      M_A    0.0000
    570 O         183.2424  139.5862   38.5789 O.3      81      M_A    0.0000
    571 H         185.9972  140.8414   38.3581 H        81      M_A    0.0000
    572 H         184.7027  140.9340   37.1828 H        81      M_A    0.0000
    573 H         183.3022  141.3671   39.5500 H        81      M_A    0.0000
    574 H         184.5329  140.2395   40.0999 H        81      M_A    0.0000
    575 C         182.2090  139.1226   39.4200 C.3      82      M_A    0.0000
    576 C         182.5387  139.3362   40.8941 C.3      82      M_A    0.0000
    577 O         181.3599  139.2215   41.6897 O.3      82      M_A    0.0000
    578 H         182.0244  138.0609   39.2211 H        82      M_A    0.0000
    579 H         181.2763  139.6432   39.1714 H        82      M_A    0.0000
    580 H         182.9164  140.3550   41.0487 H        82      M_A    0.0000
    581 H         183.3316  138.6583   41.2417 H        82      M_A    0.0000
    582 C         181.6286  138.6397   42.9465 C.3      83      M_A    0.0000
    583 C         181.6846  139.6859   44.0554 C.3      83      M_A    0.0000
    584 O         180.6210  139.4836   44.9848 O.3      83      M_A    0.0000
    585 H         182.5726  138.0851   42.8983 H        83      M_A    0.0000
    586 H         180.8543  137.8983   43.1775 H        83      M_A    0.0000
    587 H         181.5369  140.6875   43.6319 H        83      M_A    0.0000
    588 H         182.6637  139.7047   44.5555 H        83      M_A    0.0000
    589 C         180.6148  140.4653   45.9981 C.3      84      M_A    0.0000
    590 C         179.3524  141.3204   45.9515 C.3      84      M_A    0.0000
    591 O         178.4930  140.9995   47.0443 O.3      84      M_A    0.0000
    592 H         181.5058  141.0960   45.9014 H        84      M_A    0.0000
    593 H         180.6945  139.9780   46.9773 H        84      M_A    0.0000
    594 H         178.7849  141.0996   45.0385 H        84      M_A    0.0000
    595 H         179.5833  142.3950   45.9177 H        84      M_A    0.0000
    596 C         179.2209  140.7055   48.2165 C.3      85      M_A    0.0000
    597 C         178.3506  140.8073   49.4652 C.3      85      M_A    0.0000
    598 O         179.0524  140.3094   50.6033 O.3      85      M_A    0.0000
    599 H         180.0786  141.3833   48.2939 H        85      M_A    0.0000
    600 H         179.6404  139.6951   48.1406 H        85      M_A    0.0000
    601 H         177.4599  140.1761   49.3524 H        85      M_A    0.0000
    602 H         177.9833  141.8307   49.6295 H        85      M_A    0.0000
    603 C         178.8290  141.1040   51.7475 C.3      86      M_A    0.0000
    604 C         179.6226  140.6025   52.9500 C.3      86      M_A    0.0000
    605 O         179.9801  141.6915   53.7998 O.3      86      M_A    0.0000
    606 H         177.7578  141.1200   51.9780 H        86      M_A    0.0000
    607 H         179.1065  142.1423   51.5293 H        86      M_A    0.0000
    608 H         180.5652  140.1519   52.6141 H        86      M_A    0.0000
    609 H         179.0849  139.8168   53.5002 H        86      M_A    0.0000
    610 C         180.8965  142.5650   53.1773 C.3      87      M_A    0.0000
    611 C         181.4816  143.5704   54.1642 C.3      87      M_A    0.0000
    612 O         180.9054  144.8599   53.9617 O.3      87      M_A    0.0000
    613 H         180.4006  143.0868   52.3510 H        87      M_A    0.0000
    614 H         181.7055  141.9803   52.7230 H        87      M_A    0.0000
    615 H         182.5589  143.6835   53.9878 H        87      M_A    0.0000
    616 H         181.3741  143.2359   55.2062 H        87      M_A    0.0000
    617 C         180.7134  145.5467   55.1790 C.3      88      M_A    0.0000
    618 C         179.8782  144.7337   56.1632 C.3      88      M_A    0.0000
    619 O         179.8670  145.3619   57.4443 O.3      88      M_A    0.0000
    620 H         180.2359  146.5133   54.9819 H        88      M_A    0.0000
    621 H         181.6885  145.7769   55.6247 H        88      M_A    0.0000
    622 H         180.3306  143.7446   56.3093 H        88      M_A    0.0000
    623 H         178.8597  144.5539   55.7895 H        88      M_A    0.0000
    624 C         179.7531  144.4215   58.4897 C.3      89      M_A    0.0000
    625 C         178.5315  144.6897   59.3632 C.3      89      M_A    0.0000
    626 O         178.1932  143.5263   60.1169 O.3      89      M_A    0.0000
    627 H         180.6657  144.4368   59.0963 H        89      M_A    0.0000
    628 H         179.6891  143.4121   58.0659 H        89      M_A    0.0000
    629 H         177.6617  144.9109   58.7316 H        89      M_A    0.0000
    630 H         178.6723  145.5672   60.0109 H        89      M_A    0.0000
    631 C         177.3098  143.8246   61.1757 C.3      90      M_A    0.0000
    632 C         177.9756  144.6860   62.2443 C.3      90      M_A    0.0000
    633 O         177.0303  145.0533   63.2480 O.3      90      M_A    0.0000
    634 H         176.9381  142.8921   61.6153 H        90      M_A    0.0000
    635 H         176.4289  144.3438   60.7793 H        90      M_A    0.0000
    636 H         178.3323  145.6237   61.7995 H        90      M_A    0.0000
    637 H         178.8591  144.1956   62.6778 H        90      M_A    0.0000
    638 C         177.6466  145.2591   64.5002 C.3      91      M_A    0.0000
    639 C         178.9535  146.0348   64.3684 C.3      91      M_A    0.0000
    640 O         178.9556  147.1596   65.2462 O.3      91      M_A    0.0000
    641 H         177.8250  144.2917   64.9832 H        91      M_A    0.0000
    642 H         176.9593  145.8034   65.1590 H        91      M_A    0.0000
    643 H         179.0482  146.4375   63.3519 H        91      M_A    0.0000
    644 H         179.8319  145.3928   64.5280 H        91      M_A    0.0000
    645 C         180.0329  147.1143   66.1560 C.3      92      M_A    0.0000
    646 C         180.5150  148.5113   66.5343 C.3      92      M_A    0.0000
    647 O         181.2141  148.4771   67.7776 O.3      92      M_A    0.0000
    648 H         180.8540  146.5328   65.7216 H        92      M_A    0.0000
    649 H         179.7244  146.5734   67.0588 H        92      M_A    0.0000
    650 H         179.6544  149.1760   66.6833 H        92      M_A    0.0000
    651 H         181.1218  148.9676   65.7389 H        92      M_A    0.0000
    652 C         182.6077  148.6070   67.6006 C.3      93      M_A    0.0000
    653 C         183.3404  148.7222   68.9337 C.3      93      M_A    0.0000
    654 O         184.4650  147.8444   68.9612 O.3      93      M_A    0.0000
    655 H         182.8167  149.4818   66.9744 H        93      M_A    0.0000
    656 H         182.9863  147.7405   67.0452 H        93      M_A    0.0000
    657 H         182.6812  148.4036   69.7512 H        93      M_A    0.0000
    658 H         183.6286  149.7595   69.1575 H        93      M_A    0.0000
    659 C         185.5034  148.2940   68.1186 C.3      94      M_A    0.0000
    660 C         186.8401  147.6499   68.4728 C.3      94      M_A    0.0000
    661 O         187.1760  146.6432   67.5190 O.3      94      M_A    0.0000
    662 H         185.5782  149.3856   68.1812 H        94      M_A    0.0000
    663 H         185.2496  148.0680   67.0760 H        94      M_A    0.0000
    664 H         186.7649  147.1421   69.4428 H        94      M_A    0.0000
    665 H         187.6421  148.3950   68.5771 H        94      M_A    0.0000
    666 C         188.4130  146.0322   67.8134 C.3      95      M_A    0.0000
    667 C         188.3601  145.2446   69.1189 C.3      95      M_A    0.0000
    668 O         188.5848  143.8573   68.8729 O.3      95      M_A    0.0000
    669 H         189.1963  146.7971   67.8617 H        95      M_A    0.0000
    670 H         188.6938  145.3639   66.9905 H        95      M_A    0.0000
    671 H         187.3584  145.3205   69.5607 H        95      M_A    0.0000
    672 H         189.0582  145.6429   69.8693 H        95      M_A    0.0000
    673 C         188.2074  143.0604   69.9742 C.3      96      M_A    0.0000
    674 C         188.4607  141.5785   69.7153 C.3      96      M_A    0.0000
    675 O         188.6504  140.8832   70.9467 O.3      96      M_A    0.0000
    676 H         187.1495  143.2314   70.2036 H        96      M_A    0.0000
    677 H         188.7647  143.3802   70.8628 H        96      M_A    0.0000
    678 H         189.3895  141.4524   69.1444 H        96      M_A    0.0000
    679 H         187.6634  141.1234   69.1099 H        96      M_A    0.0000
    680 C         187.4252  140.4704   71.5113 C.3      97      M_A    0.0000
    681 C         187.4249  138.9804   71.8386 C.3      97      M_A    0.0000
    682 O         187.8155  138.7685   73.1945 O.3      97      M_A    0.0000
    683 H         186.6066  140.7091   70.8229 H        97      M_A    0.0000
    684 H         187.2314  141.0485   72.4229 H        97      M_A    0.0000
    685 H         188.1680  138.4617   71.2196 H        97      M_A    0.0000
    686 H         186.4565  138.5095   71.6160 H        97      M_A    0.0000
    687 C         187.2877  137.5667   73.7117 C.3      98      M_A    0.0000
    688 C         188.2676  136.4069   73.5639 C.3      98      M_A    0.0000
    689 O         188.6890  135.9446   74.8463 O.3      98      M_A    0.0000
    690 H         186.3437  137.3344   73.2058 H        98      M_A    0.0000
    691 H         187.0369  137.7052   74.7703 H        98      M_A    0.0000
    692 H         189.1737  136.7469   73.0463 H        98      M_A    0.0000
    693 H         187.8526  135.5916   72.9538 H        98      M_A    0.0000
    694 C         189.3050  134.6776   74.7718 C.3      99      M_A    0.0000
    695 C         190.7616  134.7802   74.3304 C.3      99      M_A    0.0000
    696 O         191.5237  133.7034   74.8741 O.3      99      M_A    0.0000
    697 H         188.7425  134.0376   74.0826 H        99      M_A    0.0000
    698 H         189.2500  134.1880   75.7516 H        99      M_A    0.0000
    699 H         191.2074  135.7025   74.7243 H        99      M_A    0.0000
    700 H         190.8581  134.8349   73.2363 H        99      M_A    0.0000
    701 C         192.1919  132.9725   73.8693 C.3     100      M_A    0.0000
    702 C         193.1533  131.9455   74.4594 C.3     100      M_A    0.0000
    703 O         193.6344  131.0707   73.4400 O.3     100      M_A    0.0000
    704 H         192.7302  133.6639   73.2111 H       100      M_A    0.0000
    705 H         191.4537  132.4658   73.2361 H       100      M_A    0.0000
    706 H         192.6253  131.3126   75.1841 H       100      M_A    0.0000
    707 H         193.9779  132.4211   75.0098 H       100      M_A    0.0000
    708 C         194.4581  130.0534   73.9663 C.3     101      M_A    0.0000
    709 C         195.8292  130.0312   73.2977 C.3     101      M_A    0.0000
    710 O         196.7935  129.4282   74.1593 O.3     101      M_A    0.0000
    711 H         193.9615  129.0836   73.8488 H       101      M_A    0.0000
    712 H         194.5766  130.2032   75.0462 H       101      M_A    0.0000
    713 H         196.1747  131.0575   73.1195 H       101      M_A    0.0000
    714 H         195.8003  129.5412   72.3137 H       101      M_A    0.0000
    715 C         197.9898  129.1227   73.4768 C.3     102      M_A    0.0000
    716 C         198.8879  128.1979   74.2926 C.3     102      M_A    0.0000
    717 O         199.6271  127.3340   73.4305 O.3     102      M_A    0.0000
    718 H         198.5194  130.0509   73.2340 H       102      M_A    0.0000
    719 H         197.7505  128.6513   72.5160 H       102      M_A    0.0000
    720 H         198.2746  127.5468   74.9285 H       102      M_A    0.0000
    721 H         199.5480  128.7573   74.9712 H       102      M_A    0.0000
    722 C         200.3220  126.3406   74.1520 C.3     103      M_A    0.0000
    723 C         200.9626  125.3110   73.2263 C.3     103      M_A    0.0000
    724 O         201.7866  124.4159   73.9717 O.3     103      M_A    0.0000
    725 H         199.6358  125.8493   74.8511 H       103      M_A    0.0000
    726 H         201.0953  126.8131   74.7695 H       103      M_A    0.0000
    727 H         201.6241  125.8136   72.5093 H       103      M_A    0.0000
    728 H         200.2137  124.7719   72.6282 H       103      M_A    0.0000
    729 C         201.3998  123.0713   73.7905 C.3     104      M_A    0.0000
    730 C         202.4824  122.1022   74.2553 C.3     104      M_A    0.0000
    731 O         201.8950  120.9615   74.8795 O.3     104      M_A    0.0000
    732 H         201.1617  122.8984   72.7349 H       104      M_A    0.0000
    733 H         200.4724  122.8816   74.3443 H       104      M_A    0.0000
    734 H         203.1104  122.5809   75.0174 H       104      M_A    0.0000
    735 H         203.1579  121.8149   73.4364 H       104      M_A    0.0000
    736 C         202.1742  119.7732   74.1723 C.3     105      M_A    0.0000
    737 C         201.6615  118.5403   74.9100 C.3     105      M_A    0.0000
    738 O         200.9687  117.6749   74.0117 O.3     105      M_A    0.0000
    739 H         203.2540  119.6939   74.0027 H       105      M_A    0.0000
    740 H         201.7154  119.8254   73.1776 H       105      M_A    0.0000
    741 H         200.9323  118.8384   75.6740 H       105      M_A    0.0000
    742 H         202.4668  118.0137   75.4422 H       105      M_A    0.0000
    743 C         200.0898  116.8059   74.6920 C.3     106      M_A    0.0000
    744 C         200.6469  116.3830   76.0477 C.3     106      M_A    0.0000
    745 O         199.6467  115.7068   76.8080 O.3     106      M_A    0.0000
    746 H         199.8922  115.9254   74.0701 H       106      M_A    0.0000
    747 H         199.1215  117.3020   74.8295 H       106      M_A    0.0000
    748 H         200.9283  117.2702   76.6293 H       106      M_A    0.0000
    749 H         201.5600  115.7784   75.9479 H       106      M_A    0.0000
    750 C         200.2093  114.9243   77.8384 C.3     107      M_A    0.0000
    751 C         199.2824  113.7875   78.2577 C.3     107      M_A    0.0000
    752 O         200.0019  112.5571   78.3238 O.3     107      M_A    0.0000
    753 H         200.4410  115.5635   78.6979 H       107      M_A    0.0000
    754 H         201.1682  114.5130   77.5007 H       107      M_A    0.0000
    755 H         198.4992  113.6459   77.5021 H       107      M_A    0.0000
    756 H         198.7629  114.0061   79.2020 H       107      M_A    0.0000
    757 C         199.3703  111.6240   79.1728 C.3     108      M_A    0.0000
    758 C         199.7945  110.1929   78.8579 C.3     108      M_A    0.0000
    759 O         199.8137  109.4060   80.0480 O.3     108      M_A    0.0000
    760 H         198.2828  111.7270   79.0845 H       108      M_A    0.0000
    761 H         199.6123  111.8594   80.2162 H       108      M_A    0.0000
    762 H         200.8199  110.1846   78.4669 H       108      M_A    0.0000
    763 H         199.1648  109.7380   78.0796 H       108      M_A    0.0000
    764 C         200.3818  108.1336   79.8275 C.3     109      M_A    0.0000
    765 C         200.3284  107.7359   78.3558 C.3     109      M_A    0.0000
    766 O         201.2159  106.6479   78.1015 O.3     109      M_A    0.0000
    767 H         199.8622  107.3898   80.4421 H       109      M_A    0.0000
    768 H         201.4231  108.1354   80.1717 H       109      M_A    0.0000
    769 H         200.6754  108.5686   77.7308 H       109      M_A    0.0000
    770 H         199.3037  107.5103   78.0265 H       109      M_A    0.0000
    771 C         201.8205  106.7489   76.8308 C.3     110      M_A    0.0000
    772 C         202.2733  105.3890   76.3085 C.3     110      M_A    0.0000
    773 O         201.5064  105.0142   75.1652 O.3     110      M_A    0.0000
    774 H         202.6705  107.4386   76.8842 H       110      M_A    0.0000
    775 H         201.1113  107.1977   76.1249 H       110      M_A    0.0000
    776 H         202.0912  104.6176   77.0677 H       110      M_A    0.0000
    777 H         203.3527  105.3661   76.0995 H       110      M_A    0.0000
    778 C         201.6496  103.6437   74.8626 C.3     111      M_A    0.0000
    779 C         201.1525  102.7568   75.9999 C.3     111      M_A    0.0000
    780 O         200.7691  101.4760   75.5014 O.3     111      M_A    0.0000
    781 H         202.7006  103.4260   74.6414 H       111      M_A    0.0000
    782 H         201.0941  103.4135   73.9455 H       111      M_A    0.0000
    783 H         200.2519  103.1946   76.4489 H       111      M_A    0.0000
    784 H         201.8908  102.6733   76.8106 H       111      M_A    0.0000
    785 C         200.6395  100.5264   76.5367 C.3     112      M_A    0.0000
    786 C         200.2390   99.1551   76.0017 C.3     112      M_A    0.0000
    787 O         200.3766   98.1641   77.0189 O.3     112      M_A    0.0000
    788 H         199.9031  100.8801   77.2672 H       112      M_A    0.0000
    789 H         201.5893  100.4477   77.0793 H       112      M_A    0.0000
    790 H         200.9152   98.8587   75.1897 H       112      M_A    0.0000
    791 H         199.2265   99.1596   75.5725 H       112      M_A    0.0000
    792 C         199.6996   96.9719   76.6862 C.3     113      M_A    0.0000
    793 C         199.9512   96.5619   75.2385 C.3     113      M_A    0.0000
    794 O         200.0106   95.1407   75.1266 O.3     113      M_A    0.0000
    795 H         198.6258   97.0992   76.8647 H       113      M_A    0.0000
    796 H         200.0244   96.1690   77.3588 H       113      M_A    0.0000
    797 H         200.9279   96.9378   74.9081 H       113      M_A    0.0000
    798 H         199.2077   96.9932   74.5526 H       113      M_A    0.0000
    799 C         199.7462   94.5051   76.3580 C.3     114      M_A    0.0000
    800 C         199.8029   92.9856   76.2357 C.3     114      M_A    0.0000
    801 O         199.8685   92.3841   77.5278 O.3     114      M_A    0.0000
    802 H         198.7645   94.8209   76.7291 H       114      M_A    0.0000
    803 H         200.4743   94.8425   77.1055 H       114      M_A    0.0000
    804 H         200.7189   92.6869   75.7102 H       114      M_A    0.0000
    805 H         198.9655   92.5880   75.6441 H       114      M_A    0.0000
    806 C         199.0778   91.2184   77.6057 C.3     115      M_A    0.0000
    807 C         199.7576   90.0263   76.9392 C.3     115      M_A    0.0000
    808 O         199.0901   88.8141   77.2867 O.3     115      M_A    0.0000
    809 H         198.1019   91.4071   77.1441 H       115      M_A    0.0000
    810 H         198.8743   90.9862   78.6580 H       115      M_A    0.0000
    811 H         200.7863   89.9281   77.3089 H       115      M_A    0.0000
    812 H         199.8331   90.1510   75.8493 H       115      M_A    0.0000
    813 C         197.7110   88.8714   76.9949 C.3     116      M_A    0.0000
    814 C         197.2124   87.5792   76.3555 C.3     116      M_A    0.0000
    815 O         195.9800   87.1732   76.9489 O.3     116      M_A    0.0000
    816 H         197.5118   89.7239   76.3358 H       116      M_A    0.0000
    817 H         197.1515   89.0661   77.9178 H       116      M_A    0.0000
    818 H         197.9272   86.7683   76.5453 H       116      M_A    0.0000
    819 H         197.1286   87.6656   75.2625 H       116      M_A    0.0000
    820 C         195.0995   86.6121   76.0000 C.3     117      M_A    0.0000
    821 C         195.7896   85.5580   75.1398 C.3     117      M_A    0.0000
    822 O         195.4794   84.2482   75.6131 O.3     117      M_A    0.0000
    823 H         194.6866   87.4075   75.3693 H       117      M_A    0.0000
    824 H         194.2439   86.1629   76.5184 H       117      M_A    0.0000
    825 H         196.8789   85.6645   75.2205 H       117      M_A    0.0000
    826 H         195.5474   85.6730   74.0734 H       117      M_A    0.0000
    827 C         196.2479   83.2591   74.9638 C.3     118      M_A    0.0000
    828 C         195.7555   81.8528   75.2910 C.3     118      M_A    0.0000
    829 O         195.0900   81.2836   74.1646 O.3     118      M_A    0.0000
    830 H         197.3007   83.3695   75.2473 H       118      M_A    0.0000
    831 H         196.2084   83.4210   73.8799 H       118      M_A    0.0000
    832 H         195.0131   81.8952   76.0981 H       118      M_A    0.0000
    833 H         196.5673   81.2056   75.6535 H       118      M_A    0.0000
    834 C         194.0681   80.3920   74.5532 C.3     119      M_A    0.0000
    835 C         194.5124   78.9368   74.4418 C.3     119      M_A    0.0000
    836 O         193.3885   78.0896   74.2073 O.3     119      M_A    0.0000
    837 H         193.1776   80.5663   73.9387 H       119      M_A    0.0000
    838 H         193.7695   80.6085   75.5860 H       119      M_A    0.0000
    839 H         194.9536   78.6071   75.3910 H       119      M_A    0.0000
    840 H         195.2908   78.8008   73.6771 H       119      M_A    0.0000
    841 C         193.6632   77.1108   73.2291 C.3     120      M_A    0.0000
    842 C         194.9338   76.3297   73.5496 C.3     120      M_A    0.0000
    843 O         195.0445   75.1888   72.6999 O.3     120      M_A    0.0000
    844 H         193.7480   77.5894   72.2468 H       120      M_A    0.0000
    845 H         192.8141   76.4206   73.1565 H       120      M_A    0.0000
    846 H         194.8870   75.9453   74.5765 H       120      M_A    0.0000
    847 H         195.8311   76.9632   73.4989 H       120      M_A    0.0000
    848 C         196.1003   74.3402   73.0944 C.3     121      M_A    0.0000
    849 C         196.6281   73.5116   71.9274 C.3     121      M_A    0.0000
    850 O         198.0538   73.5554   71.8903 O.3     121      M_A    0.0000
    851 H         195.7594   73.6845   73.9036 H       121      M_A    0.0000
    852 H         196.9134   74.9431   73.5164 H       121      M_A    0.0000
    853 H         196.2822   73.9402   70.9781 H       121      M_A    0.0000
    854 H         196.2535   72.4781   71.9528 H       121      M_A    0.0000
    855 C         198.5922   72.5002   71.1242 C.3     122      M_A    0.0000
    856 C         198.5966   72.8261   69.6339 C.3     122      M_A    0.0000
    857 O         199.6790   72.1631   68.9823 O.3     122      M_A    0.0000
    858 H         198.0212   71.5838   71.3119 H       122      M_A    0.0000
    859 H         199.6155   72.2924   71.4594 H       122      M_A    0.0000
    860 H         198.7609   73.9012   69.4870 H       122      M_A    0.0000
    861 H         197.6325   72.5946   69.1583 H       122      M_A    0.0000
    862 C         199.2851   71.5995   67.7505 C.3     123      M_A    0.0000
    863 C         200.3226   70.6152   67.2195 C.3     123      M_A    0.0000
    864 O         199.8403   69.9706   66.0415 O.3     123      M_A    0.0000
    865 H         199.1109   72.3992   67.0217 H       123      M_A    0.0000
    866 H         198.3224   71.0894   67.8750 H       123      M_A    0.0000
    867 H         200.4953   69.8206   67.9564 H       123      M_A    0.0000
    868 H         201.2975   71.0950   67.0504 H       123      M_A    0.0000
    869 C         200.7344   68.9817   65.5800 C.3     124      M_A    0.0000
    870 C         202.1024   69.5666   65.2431 C.3     124      M_A    0.0000
    871 O         203.0787   68.5299   65.1530 O.3     124      M_A    0.0000
    872 H         200.3069   68.4831   64.7027 H       124      M_A    0.0000
    873 H         200.8439   68.2042   66.3457 H       124      M_A    0.0000
    874 H         202.4336   70.2318   66.0508 H       124      M_A    0.0000
    875 H         202.0753   70.1801   64.3310 H       124      M_A    0.0000
    876 C         202.5941   67.4121   64.4417 C.3     125      M_A    0.0000
    877 C         203.6634   66.8091   63.5360 C.3     125      M_A    0.0000
    878 O         203.4169   65.4186   63.3321 O.3     125      M_A    0.0000
    879 H         201.7176   67.7054   63.8529 H       125      M_A    0.0000
    880 H         202.2414   66.6541   65.1513 H       125      M_A    0.0000
    881 H         204.6460   66.8799   64.0196 H       125      M_A    0.0000
    882 H         203.7499   67.3508   62.5829 H       125      M_A    0.0000
    883 C         202.1765   65.1920   62.6994 C.3     126      M_A    0.0000
    884 C         201.8418   63.7056   62.6234 C.3     126      M_A    0.0000
    885 O         200.4331   63.5182   62.4958 O.3     126      M_A    0.0000
    886 H         202.1928   65.6305   61.6952 H       126      M_A    0.0000
    887 H         201.3868   65.7204   63.2469 H       126      M_A    0.0000
    888 H         202.1351   63.2083   63.5567 H       126      M_A    0.0000
    889 H         202.3940   63.1992   61.8185 H       126      M_A    0.0000
    890 C         200.0252   63.5028   61.1453 C.3     127      M_A    0.0000
    891 C         199.2526   62.2333   60.8007 C.3     127      M_A    0.0000
    892 O         198.7644   62.2957   59.4615 O.3     127      M_A    0.0000
    893 H         200.9033   63.6019   60.4971 H       127      M_A    0.0000
    894 H         199.4004   64.3812   60.9438 H       127      M_A    0.0000
    895 H         198.3695   62.1464   61.4465 H       127      M_A    0.0000
    896 H         199.8506   61.3269   60.9738 H       127      M_A    0.0000
    897 C         198.6107   61.0116   58.8978 C.3     128      M_A    0.0000
    898 C         197.3786   60.2964   59.4434 C.3     128      M_A    0.0000
    899 O         196.8240   59.4332   58.4519 O.3     128      M_A    0.0000
    900 H         199.5117   60.4179   59.0896 H       128      M_A    0.0000
    901 H         198.5335   61.0996   57.8074 H       128      M_A    0.0000
    902 H         196.5980   61.0288   59.6854 H       128      M_A    0.0000
    903 H         197.5945   59.7573   60.3772 H       128      M_A    0.0000
    904 C         197.5908   58.2604   58.2878 C.3     129      M_A    0.0000
    905 C         196.8521   57.2106   57.4635 C.3     129      M_A    0.0000
    906 O         197.0483   55.9117   58.0204 O.3     129      M_A    0.0000
    907 H         197.8548   57.8556   59.2714 H       129      M_A    0.0000
    908 H         198.5402   58.5116   57.7998 H       129      M_A    0.0000
    909 H         197.2648   57.1752   56.4471 H       129      M_A    0.0000
    910 H         195.7843   57.4489   57.3537 H       129      M_A    0.0000
    911 C         195.9999   55.0307   57.6814 C.3     130      M_A    0.0000
    912 C         195.0153   55.6693   56.7067 C.3     130      M_A    0.0000
    913 O         194.1679   54.6754   56.1322 O.3     130      M_A    0.0000
    914 H         195.4811   54.7119   58.5926 H       130      M_A    0.0000
    915 H         196.4192   54.1194   57.2381 H       130      M_A    0.0000
    916 H         195.5603   56.1288   55.8723 H       130      M_A    0.0000
    917 H         194.4348   56.4764   57.1766 H       130      M_A    0.0000
    918 C         193.3761   55.1993   55.0887 C.3     131      M_A    0.0000
    919 C         191.9082   55.3070   55.4897 C.3     131      M_A    0.0000
    920 O         191.2184   56.2020   54.6185 O.3     131      M_A    0.0000
    921 H         193.4823   54.5697   54.1979 H       131      M_A    0.0000
    922 H         193.7550   56.1888   54.8060 H       131      M_A    0.0000
    923 H         191.8265   55.7342   56.4973 H       131      M_A    0.0000
    924 H         191.4191   54.3231   55.5322 H       131      M_A    0.0000
    925 C         189.9350   55.7228   54.2817 C.3     132      M_A    0.0000
    926 C         189.1323   55.3333   55.5192 C.3     132      M_A    0.0000
    927 O         187.7339   55.3729   55.2384 O.3     132      M_A    0.0000
    928 H         190.0305   54.8664   53.6047 H       132      M_A    0.0000
    929 H         189.3947   56.4937   53.7191 H       132      M_A    0.0000
    930 H         189.3059   56.0615   56.3217 H       132      M_A    0.0000
    931 H         189.4394   54.3560   55.9190 H       132      M_A    0.0000
    932 C         187.2079   54.0846   55.0061 C.3     133      M_A    0.0000
    933 C         186.3781   54.0331   53.7270 C.3     133      M_A    0.0000
    934 O         186.2320   52.6852   53.2823 O.3     133      M_A    0.0000
    935 H         186.6020   53.7766   55.8657 H       133      M_A    0.0000
    936 H         188.0302   53.3619   54.9417 H       133      M_A    0.0000
    937 H         186.8983   54.5680   52.9223 H       133      M_A    0.0000
    938 H         185.4043   54.5296   53.8470 H       133      M_A    0.0000
    939 C         185.4299   51.9262   54.1602 C.3     134      M_A    0.0000
    940 C         184.4363   51.0487   53.4052 C.3     134      M_A    0.0000
    941 O         183.8915   50.0545   54.2716 O.3     134      M_A    0.0000
    942 H         184.9005   52.5983   54.8451 H       134      M_A    0.0000
    943 H         186.0724   51.2986   54.7895 H       134      M_A    0.0000
    944 H         184.9513   50.5076   52.6013 H       134      M_A    0.0000
    945 H         183.6476   51.6421   52.9204 H       134      M_A    0.0000
    946 C         182.7352   49.4583   53.7258 C.3     135      M_A    0.0000
    947 C         181.5733   49.4649   54.7142 C.3     135      M_A    0.0000
    948 O         180.3285   49.4009   54.0198 O.3     135      M_A    0.0000
    949 H         182.9648   48.4328   53.4148 H       135      M_A    0.0000
    950 H         182.4462   49.9931   52.8131 H       135      M_A    0.0000
    951 H         181.5649   50.4084   55.2747 H       135      M_A    0.0000
    952 H         181.6634   48.6637   55.4620 H       135      M_A    0.0000
    953 C         180.3389   48.4133   53.0123 C.3     136      M_A    0.0000
    954 C         178.9533   47.8148   52.7906 C.3     136      M_A    0.0000
    955 O         178.8009   47.4014   51.4334 O.3     136      M_A    0.0000
    956 H         181.0551   47.6275   53.2781 H       136      M_A    0.0000
    957 H         180.7054   48.8520   52.0764 H       136      M_A    0.0000
    958 H         178.1841   48.5771   52.9684 H       136      M_A    0.0000
    959 H         178.7414   46.9946   53.4917 H       136      M_A    0.0000
    960 C         178.8003   48.4988   50.5468 C.3     137      M_A    0.0000
    961 C         178.6733   48.0534   49.0933 C.3     137      M_A    0.0000
    962 O         178.0018   49.0500   48.3240 O.3     137      M_A    0.0000
    963 H         179.7168   49.0829   50.6874 H       137      M_A    0.0000
    964 H         177.9718   49.1711   50.8004 H       137      M_A    0.0000
    965 H         178.0547   47.1489   49.0323 H       137      M_A    0.0000
    966 H         179.6473   47.7899   48.6561 H       137      M_A    0.0000
    967 C         177.8937   48.6816   46.9664 C.3     138      M_A    0.0000
    968 C         177.2252   49.7716   46.1345 C.3     138      M_A    0.0000
    969 O         176.6434   49.2133   44.9574 O.3     138      M_A    0.0000
    970 H         177.3331   47.7434   46.8858 H       138      M_A    0.0000
    971 H         178.8927   48.4720   46.5655 H       138      M_A    0.0000
    972 H         177.9767   50.4949   45.7931 H       138      M_A    0.0000
    973 H         176.4905   50.3442   46.7190 H       138      M_A    0.0000
    974 C         175.9216   50.1758   44.2206 C.3     139      M_A    0.0000
    975 C         174.7141   50.6946   44.9952 C.3     139      M_A    0.0000
    976 O         173.7144   51.1734   44.0967 O.3     139      M_A    0.0000
    977 H         175.6037   49.7422   43.2656 H       139      M_A    0.0000
    978 H         176.5842   51.0120   43.9669 H       139      M_A    0.0000
    979 H         175.0075   51.5518   45.6144 H       139      M_A    0.0000
    980 H         174.3119   49.9395   45.6860 H       139      M_A    0.0000
    981 C         173.6828   50.4275   42.8997 C.3     140      M_A    0.0000
    982 C         172.3055   49.8236   42.6439 C.3     140      M_A    0.0000
    983 O         171.5926   50.5991   41.6816 O.3     140      M_A    0.0000
    984 H         174.4429   49.6390   42.9402 H       140      M_A    0.0000
    985 H         173.9636   51.0747   42.0601 H       140      M_A    0.0000
    986 H         171.7087   49.8510   43.5645 H       140      M_A    0.0000
    987 H         172.3673   48.7661   42.3489 H       140      M_A    0.0000
    988 C         171.2722   51.8820   42.1736 C.3     141      M_A    0.0000
    989 C         170.2016   51.8221   43.2587 C.3     141      M_A    0.0000
    990 O         169.0834   52.6326   42.9001 O.3     141      M_A    0.0000
    991 H         170.9401   52.5186   41.3457 H       141      M_A    0.0000
    992 H         172.1772   52.3547   42.5739 H       141      M_A    0.0000
    993 H         170.5951   52.2375   44.1952 H       141      M_A    0.0000
    994 H         169.8996   50.7890   43.4835 H       141      M_A    0.0000
    995 C         167.8596   52.0238   43.2492 C.3     142      M_A    0.0000
    996 C         167.8540   51.5528   44.7002 C.3     142      M_A    0.0000
    997 O         166.5151   51.3826   45.1632 O.3     142      M_A    0.0000
    998 H         167.6646   51.1821   42.5749 H       142      M_A    0.0000
    999 H         167.0405   52.7351   43.0890 H       142      M_A    0.0000
   1000 H         168.3071   52.3181   45.3432 H       142      M_A    0.0000
   1001 H         168.4517   50.6405   44.8399 H       142      M_A    0.0000
   1002 C         165.9987   50.1145   44.8231 C.3     143      M_A    0.0000
   1003 C         164.4741   50.0915   44.8716 C.3     143      M_A    0.0000
   1004 O         163.9556   49.2561   43.8375 O.3     143      M_A    0.0000
   1005 H         166.4126   49.3579   45.4991 H       143      M_A    0.0000
   1006 H         166.3400   49.8403   43.8176 H       143      M_A    0.0000
   1007 H         164.0789   51.0975   44.6817 H       143      M_A    0.0000
   1008 H         164.0975   49.7949   45.8612 H       143      M_A    0.0000
   1009 C         162.5510   49.1444   43.9069 C.3     144      M_A    0.0000
   1010 C         161.9270   48.9691   42.5259 C.3     144      M_A    0.0000
   1011 O         160.5047   49.0457   42.6088 O.3     144      M_A    0.0000
   1012 H         162.1378   50.0306   44.4017 H       144      M_A    0.0000
   1013 H         162.2847   48.2916   44.5430 H       144      M_A    0.0000
   1014 H         162.1592   47.9702   42.1351 H       144      M_A    0.0000
   1015 H         162.3312   49.6862   41.7968 H       144      M_A    0.0000
   1016 C         159.9353   49.5485   41.4199 C.3     145      M_A    0.0000
   1017 C         160.5785   48.9357   40.1797 C.3     145      M_A    0.0000
   1018 O         159.5991   48.7237   39.1640 O.3     145      M_A    0.0000
   1019 H         160.0341   50.6397   41.4003 H       145      M_A    0.0000
   1020 H         158.8582   49.3426   41.4168 H       145      M_A    0.0000
   1021 H         160.9899   47.9474   40.4217 H       145      M_A    0.0000
   1022 H         161.4218   49.5382   39.8122 H       145      M_A    0.0000
   1023 C         158.6618   47.7369   39.5356 C.3     146      M_A    0.0000
   1024 C         157.2697   48.0440   38.9926 C.3     146      M_A    0.0000
   1025 O         156.7993   46.9632   38.1885 O.3     146      M_A    0.0000
   1026 H         158.6342   47.6518   40.6278 H       146      M_A    0.0000
   1027 H         158.9953   46.7603   39.1648 H       146      M_A    0.0000
   1028 H         157.3102   48.9218   38.3351 H       146      M_A    0.0000
   1029 H         156.5598   48.2931   39.7946 H       146      M_A    0.0000
   1030 C         155.8168   47.3826   37.2670 C.3     147      M_A    0.0000
   1031 C         154.9017   48.4495   37.8599 C.3     147      M_A    0.0000
   1032 O         154.2496   49.1792   36.8216 O.3     147      M_A    0.0000
   1033 H         155.2300   46.5171   36.9391 H       147      M_A    0.0000
   1034 H         156.3056   47.7746   36.3670 H       147      M_A    0.0000
   1035 H         155.4958   49.1802   38.4234 H       147      M_A    0.0000
   1036 H         154.1805   48.0243   38.5729 H       147      M_A    0.0000
   1037 C         153.2892   50.0770   37.3335 C.3     148      M_A    0.0000
   1038 C         152.5862   50.8499   36.2220 C.3     148      M_A    0.0000
   1039 O         151.2705   50.3381   36.0149 O.3     148      M_A    0.0000
   1040 H         153.7720   50.7695   38.0323 H       148      M_A    0.0000
   1041 H         152.5490   49.5215   37.9218 H       148      M_A    0.0000
   1042 H         153.1225   50.7126   35.2744 H       148      M_A    0.0000
   1043 H         152.5757   51.9323   36.4154 H       148      M_A    0.0000
   1044 C         150.6622   50.8990   34.8722 C.3     149      M_A    0.0000
   1045 C         149.5631   49.9994   34.3155 C.3     149      M_A    0.0000
   1046 O         148.4879   50.7855   33.8038 O.3     149      M_A    0.0000
   1047 H         151.4244   51.0868   34.1074 H       149      M_A    0.0000
   1048 H         150.2426   51.8794   35.1275 H       149      M_A    0.0000
   1049 H         149.1395   49.3853   35.1203 H       149      M_A    0.0000
   1050 H         149.9475   49.2966   33.5622 H       149      M_A    0.0000
   1051 C         147.6187   50.0238   32.9947 C.3     150      M_A    0.0000
   1052 C         146.4345   50.8491   32.5009 C.3     150      M_A    0.0000
   1053 O         145.4156   49.9963   31.9808 O.3     150      M_A    0.0000
   1054 H         147.2667   49.1513   33.5569 H       150      M_A    0.0000
   1055 H         148.1746   49.6262   32.1371 H       150      M_A    0.0000
   1056 H         146.7491   51.4944   31.6709 H       150      M_A    0.0000
   1057 H         146.0450   51.5192   33.2809 H       150      M_A    0.0000
   1058 C         144.3918   50.7287   31.3439 C.3     151      M_A    0.0000
   1059 C         143.7681   51.7613   32.2776 C.3     151      M_A    0.0000
   1060 O         142.6512   52.3896   31.6502 O.3     151      M_A    0.0000
   1061 H         143.6255   50.0388   30.9727 H       151      M_A    0.0000
   1062 H         144.8003   51.2309   30.4586 H       151      M_A    0.0000
   1063 H         144.4913   52.5592   32.4890 H       151      M_A    0.0000
   1064 H         143.4966   51.3267   33.2505 H       151      M_A    0.0000
   1065 C         141.6617   51.4545   31.2802 C.3     152      M_A    0.0000
   1066 C         140.3197   52.1268   31.0075 C.3     152      M_A    0.0000
   1067 O         139.6800   51.5238   29.8836 O.3     152      M_A    0.0000
   1068 H         141.5569   50.7015   32.0695 H       152      M_A    0.0000
   1069 H         141.9906   50.9112   30.3862 H       152      M_A    0.0000
   1070 H         140.4764   53.1805   30.7437 H       152      M_A    0.0000
   1071 H         139.6699   52.1252   31.8946 H       152      M_A    0.0000
   1072 C         138.3130   51.8650   29.8115 C.3     153      M_A    0.0000
   1073 C         137.7716   51.7407   28.3907 C.3     153      M_A    0.0000
   1074 O         136.3526   51.5922   28.4098 O.3     153      M_A    0.0000
   1075 H         138.1707   52.8853   30.1854 H       153      M_A    0.0000
   1076 H         137.7396   51.2146   30.4830 H       153      M_A    0.0000
   1077 H         138.1696   50.8342   27.9172 H       153      M_A    0.0000
   1078 H         138.0839   52.5821   27.7554 H       153      M_A    0.0000
   1079 C         135.7829   51.8233   27.1400 C.3     154      M_A    0.0000
   1080 C         134.2756   51.5885   27.1434 C.3     154      M_A    0.0000
   1081 O         133.6139   52.5905   26.3727 O.3     154      M_A    0.0000
   1082 H         136.2673   51.1774   26.3990 H       154      M_A    0.0000
   1083 H         135.9953   52.8530   26.8279 H       154      M_A    0.0000
   1084 H         133.8857   51.6788   28.1653 H       154      M_A    0.0000
   1085 H         134.0153   50.5758   26.8033 H       154      M_A    0.0000
   1086 C         132.3316   52.1730   25.9580 C.3     155      M_A    0.0000
   1087 C         131.2895   53.2711   26.1453 C.3     155      M_A    0.0000
   1088 O         130.3124   53.2126   25.1071 O.3     155      M_A    0.0000
   1089 H         132.0421   51.2743   26.5143 H       155      M_A    0.0000
   1090 H         132.3692   51.8760   24.9029 H       155      M_A    0.0000
   1091 H         131.7661   54.2564   26.0642 H       155      M_A    0.0000
   1092 H         130.8265   53.2346   27.1420 H       155      M_A    0.0000
   1093 C         129.3654   54.2525   25.2176 C.3     156      M_A    0.0000
   1094 C         128.2525   54.1184   24.1828 C.3     156      M_A    0.0000
   1095 O         127.8101   55.4065   23.7577 O.3     156      M_A    0.0000
   1096 H         129.8701   55.2194   25.1109 H       156      M_A    0.0000
   1097 H         128.9342   54.2465   26.2259 H       156      M_A    0.0000
   1098 H         127.3808   53.6266   24.6331 H       156      M_A    0.0000
   1099 H         128.5542   53.4907   23.3318 H       156      M_A    0.0000
   1100 C         127.0481   55.3357   22.5725 C.3     157      M_A    0.0000
   1101 C         127.3084   54.0419   21.8073 C.3     157      M_A    0.0000
   1102 O         126.2834   53.8209   20.8396 O.3     157      M_A    0.0000
   1103 H         127.2723   56.2031   21.9413 H       157      M_A    0.0000
   1104 H         125.9823   55.4099   22.8200 H       157      M_A    0.0000
   1105 H         127.2720   53.1873   22.4948 H       157      M_A    0.0000
   1106 H         128.3087   54.0270   21.3508 H       157      M_A    0.0000
   1107 C         126.2409   54.8494   19.8749 C.3     158      M_A    0.0000
   1108 C         124.9851   54.7666   19.0126 C.3     158      M_A    0.0000
   1109 O         124.2834   56.0088   19.0344 O.3     158      M_A    0.0000
   1110 H         127.1377   54.7991   19.2471 H       158      M_A    0.0000
   1111 H         126.2790   55.8228   20.3786 H       158      M_A    0.0000
   1112 H         124.2974   54.0174   19.4250 H       158      M_A    0.0000
   1113 H         125.2106   54.4449   17.9856 H       158      M_A    0.0000
   1114 C         122.8865   55.8246   18.9635 C.3     159      M_A    0.0000
   1115 C         122.3458   56.1181   17.5675 C.3     159      M_A    0.0000
   1116 O         121.0250   55.5976   17.4255 O.3     159      M_A    0.0000
   1117 H         122.3952   56.4652   19.7046 H       159      M_A    0.0000
   1118 H         122.6406   54.7936   19.2451 H       159      M_A    0.0000
   1119 H         122.9601   55.6087   16.8142 H       159      M_A    0.0000
   1120 H         122.3887   57.1900   17.3257 H       159      M_A    0.0000
   1121 C         120.5673   55.6818   16.0937 C.3     160      M_A    0.0000
   1122 C         119.1980   56.3484   16.0056 C.3     160      M_A    0.0000
   1123 O         119.3155   57.6552   15.4449 O.3     160      M_A    0.0000
   1124 H         120.5310   54.6779   15.6555 H       160      M_A    0.0000
   1125 H         121.2918   56.2466   15.4949 H       160      M_A    0.0000
   1126 H         118.7818   56.4817   17.0123 H       160      M_A    0.0000
   1127 H         118.4742   55.7322   15.4528 H       160      M_A    0.0000
   1128 C         118.0671   58.1617   15.0264 C.3     161      M_A    0.0000
   1129 C         116.9874   57.9542   16.0841 C.3     161      M_A    0.0000
   1130 O         116.1766   59.1221   16.2037 O.3     161      M_A    0.0000
   1131 H         117.7750   57.6825   14.0851 H       161      M_A    0.0000
   1132 H         118.1644   59.2311   14.8034 H       161      M_A    0.0000
   1133 H         117.4516   57.7998   17.0665 H       161      M_A    0.0000
   1134 H         116.3825   57.0577   15.8854 H       161      M_A    0.0000
   1135 C         115.1185   59.1252   15.2706 C.3     162      M_A    0.0000
   1136 C         115.0887   60.4116   14.4511 C.3     162      M_A    0.0000
   1137 O         114.1520   60.2985   13.3807 O.3     162      M_A    0.0000
   1138 H         114.1670   58.9865   15.7963 H       162      M_A    0.0000
   1139 H         115.2217   58.2632   14.6005 H       162      M_A    0.0000
   1140 H         116.0682   60.5814   13.9864 H       162      M_A    0.0000
   1141 H         114.8876   61.2939   15.0759 H       162      M_A    0.0000
   1142 C         114.0851   61.4807   12.6138 C.3     163      M_A    0.0000
   1143 C         113.5875   62.6640   13.4381 C.3     163      M_A    0.0000
   1144 O         113.7926   63.8856   12.7298 O.3     163      M_A    0.0000
   1145 H         113.4329   61.3186   11.7482 H       163      M_A    0.0000
   1146 H         115.0777   61.7066   12.2059 H       163      M_A    0.0000
   1147 H         114.1691   62.7445   14.3653 H       163      M_A    0.0000
   1148 H         112.5381   62.5420   13.7430 H       163      M_A    0.0000
   1149 C         113.5940   63.7281   11.3420 C.3     164      M_A    0.0000
   1150 C         113.1066   65.0177   10.6889 C.3     164      M_A    0.0000
   1151 O         113.6310   65.1356    9.3672 O.3     164      M_A    0.0000
   1152 H         112.8782   62.9174   11.1649 H       164      M_A    0.0000
   1153 H         114.5331   63.4095   10.8738 H       164      M_A    0.0000
   1154 H         113.4821   65.8846   11.2475 H       164      M_A    0.0000
   1155 H         112.0098   65.0965   10.6998 H       164      M_A    0.0000
   1156 C         113.8420   66.4823    9.0037 C.3     165      M_A    0.0000
   1157 C         113.6610   66.7002    7.5047 C.3     165      M_A    0.0000
   1158 O         113.8615   68.0735    7.1734 O.3     165      M_A    0.0000
   1159 H         114.8462   66.7919    9.3150 H       165      M_A    0.0000
   1160 H         113.1438   67.1222    9.5565 H       165      M_A    0.0000
   1161 H         112.6302   66.4607    7.2141 H       165      M_A    0.0000
   1162 H         114.3093   66.0397    6.9108 H       165      M_A    0.0000
   1163 C         114.2450   68.2384    5.8258 C.3     166      M_A    0.0000
   1164 C         115.6357   67.6713    5.5584 C.3     166      M_A    0.0000
   1165 O         115.9108   67.6665    4.1584 O.3     166      M_A    0.0000
   1166 H         114.2106   69.3019    5.5635 H       166      M_A    0.0000
   1167 H         113.5134   67.7433    5.1760 H       166      M_A    0.0000
   1168 H         115.6814   66.6244    5.8846 H       166      M_A    0.0000
   1169 H         116.4139   68.2039    6.1240 H       166      M_A    0.0000
   1170 C         116.4410   68.8992    3.7228 C.3     167      M_A    0.0000
   1171 C         117.5074   68.7099    2.6484 C.3     167      M_A    0.0000
   1172 O         118.7271   69.3373    3.0416 O.3     167      M_A    0.0000
   1173 H         116.8559   69.4419    4.5797 H       167      M_A    0.0000
   1174 H         115.6306   69.5262    3.3318 H       167      M_A    0.0000
   1175 H         117.1934   69.2026    1.7194 H       167      M_A    0.0000
   1176 H         117.6575   67.6496    2.3987 H       167      M_A    0.0000
   1177 C         119.5913   68.4385    3.7018 C.3     168      M_A    0.0000
   1178 C         118.8260   67.4734    4.6018 C.3     168      M_A    0.0000
   1179 O         119.6064   66.3068    4.8583 O.3     168      M_A    0.0000
   1180 H         120.3274   69.0019    4.2864 H       168      M_A    0.0000
   1181 H         120.1654   67.8729    2.9580 H       168      M_A    0.0000
   1182 H         117.9165   67.1295    4.0929 H       168      M_A    0.0000
   1183 H         118.4942   67.9538    5.5336 H       168      M_A    0.0000
   1184 C         120.2359   65.8282    3.6899 C.3     169      M_A    0.0000
   1185 C         119.2599   65.7236    2.5221 C.3     169      M_A    0.0000
   1186 O         118.9904   64.3555    2.2195 O.3     169      M_A    0.0000
   1187 H         120.6917   64.8527    3.8937 H       169      M_A    0.0000
   1188 H         121.0621   66.4975    3.4214 H       169      M_A    0.0000
   1189 H         119.7098   66.1557    1.6192 H       169      M_A    0.0000
   1190 H         118.3350   66.2893    2.7058 H       169      M_A    0.0000
   1191 C         117.6054   64.0942    2.1563 C.3     170      M_A    0.0000
   1192 C         116.7794   65.3140    2.5526 C.3     170      M_A    0.0000
   1193 O         115.3892   65.0582    2.3588 O.3     170      M_A    0.0000
   1194 H         117.3639   63.2439    2.8041 H       170      M_A    0.0000
   1195 H         117.3398   63.7836    1.1386 H       170      M_A    0.0000
   1196 H         117.0299   66.1621    1.9028 H       170      M_A    0.0000
   1197 H         116.9934   65.6405    3.5806 H       170      M_A    0.0000
   1198 H         114.9976   64.5756    3.1165 H       170      M_A    0.0000
   1199 H         125.9782  237.7793   84.7243 H         0      M_A    0.0000
@<TRIPOS>BOND
     1     1     2      1
     2     1     4      1
     3     1     5      1
     4     1  1199      1
     5     2     3      1
     6     2     6      1
     7     2     7      1
     8     3     8      1
     9     8     9      1
    10     8    11      1
    11     8    12      1
    12     9    10      1
    13     9    13      1
    14     9    14      1
    15    10    15      1
    16    15    16      1
    17    15    18      1
    18    15    19      1
    19    16    17      1
    20    16    20      1
    21    16    21      1
    22    17    22      1
    23    22    23      1
    24    22    25      1
    25    22    26      1
    26    23    24      1
    27    23    27      1
    28    23    28      1
    29    24    29      1
    30    29    30      1
    31    29    32      1
    32    29    33      1
    33    30    31      1
    34    30    34      1
    35    30    35      1
    36    31    36      1
    37    36    37      1
    38    36    39      1
    39    36    40      1
    40    37    38      1
    41    37    41      1
    42    37    42      1
    43    38    43      1
    44    43    44      1
    45    43    46      1
    46    43    47      1
    47    44    45      1
    48    44    48      1
    49    44    49      1
    50    45    50      1
    51    50    51      1
    52    50    53      1
    53    50    54      1
    54    51    52      1
    55    51    55      1
    56    51    56      1
    57    52    57      1
    58    57    58      1
    59    57    60      1
    60    57    61      1
    61    58    59      1
    62    58    62      1
    63    58    63      1
    64    59    64      1
    65    64    65      1
    66    64    67      1
    67    64    68      1
    68    65    66      1
    69    65    69      1
    70    65    70      1
    71    66    71      1
    72    71    72      1
    73    71    74      1
    74    71    75      1
    75    72    73      1
    76    72    76      1
    77    72    77      1
    78    73    78      1
    79    78    79      1
    80    78    81      1
    81    78    82      1
    82    79    80      1
    83    79    83      1
    84    79    84      1
    85    80    85      1
    86    85    86      1
    87    85    88      1
    88    85    89      1
    89    86    87      1
    90    86    90      1
    91    86    91      1
    92    87    92      1
    93    92    93      1
    94    92    95      1
    95    92    96      1
    96    93    94      1
    97    93    97      1
    98    93    98      1
    99    94    99      1
   100    99   100      1
   101    99   102      1
   102    99   103      1
   103   100   101      1
   104   100   104      1
   105   100   105      1
   106   101   106      1
   107   106   107      1
   108   106   109      1
   109   106   110      1
   110   107   108      1
   111   107   111      1
   112   107   112      1
   113   108   113      1
   114   113   114      1
   115   113   116      1
   116   113   117      1
   117   114   115      1
   118   114   118      1
   119   114   119      1
   120   115   120      1
   121   120   121      1
   122   120   123      1
   123   120   124      1
   124   121   122      1
   125   121   125      1
   126   121   126      1
   127   122   127      1
   128   127   128      1
   129   127   130      1
   130   127   131      1
   131   128   129      1
   132   128   132      1
   133   128   133      1
   134   129   134      1
   135   134   135      1
   136   134   137      1
   137   134   138      1
   138   135   136      1
   139   135   139      1
   140   135   140      1
   141   136   141      1
   142   141   142      1
   143   141   144      1
   144   141   145      1
   145   142   143      1
   146   142   146      1
   147   142   147      1
   148   143   148      1
   149   148   149      1
   150   148   151      1
   151   148   152      1
   152   149   150      1
   153   149   153      1
   154   149   154      1
   155   150   155      1
   156   155   156      1
   157   155   158      1
   158   155   159      1
   159   156   157      1
   160   156   160      1
   161   156   161      1
   162   157   162      1
   163   162   163      1
   164   162   165      1
   165   162   166      1
   166   163   164      1
   167   163   167      1
   168   163   168      1
   169   164   169      1
   170   169   170      1
   171   169   172      1
   172   169   173      1
   173   170   171      1
   174   170   174      1
   175   170   175      1
   176   171   176      1
   177   176   177      1
   178   176   179      1
   179   176   180      1
   180   177   178      1
   181   177   181      1
   182   177   182      1
   183   178   183      1
   184   183   184      1
   185   183   186      1
   186   183   187      1
   187   184   185      1
   188   184   188      1
   189   184   189      1
   190   185   190      1
   191   190   191      1
   192   190   193      1
   193   190   194      1
   194   191   192      1
   195   191   195      1
   196   191   196      1
   197   192   197      1
   198   197   198      1
   199   197   200      1
   200   197   201      1
   201   198   199      1
   202   198   202      1
   203   198   203      1
   204   199   204      1
   205   204   205      1
   206   204   207      1
   207   204   208      1
   208   205   206      1
   209   205   209      1
   210   205   210      1
   211   206   211      1
   212   211   212      1
   213   211   214      1
   214   211   215      1
   215   212   213      1
   216   212   216      1
   217   212   217      1
   218   213   218      1
   219   218   219      1
   220   218   221      1
   221   218   222      1
   222   219   220      1
   223   219   223      1
   224   219   224      1
   225   220   225      1
   226   225   226      1
   227   225   228      1
   228   225   229      1
   229   226   227      1
   230   226   230      1
   231   226   231      1
   232   227   232      1
   233   232   233      1
   234   232   235      1
   235   232   236      1
   236   233   234      1
   237   233   237      1
   238   233   238      1
   239   234   239      1
   240   239   240      1
   241   239   242      1
   242   239   243      1
   243   240   241      1
   244   240   244      1
   245   240   245      1
   246   241   246      1
   247   246   247      1
   248   246   249      1
   249   246   250      1
   250   247   248      1
   251   247   251      1
   252   247   252      1
   253   248   253      1
   254   253   254      1
   255   253   256      1
   256   253   257      1
   257   254   255      1
   258   254   258      1
   259   254   259      1
   260   255   260      1
   261   260   261      1
   262   260   263      1
   263   260   264      1
   264   261   262      1
   265   261   265      1
   266   261   266      1
   267   262   267      1
   268   267   268      1
   269   267   270      1
   270   267   271      1
   271   268   269      1
   272   268   272      1
   273   268   273      1
   274   269   274      1
   275   274   275      1
   276   274   277      1
   277   274   278      1
   278   275   276      1
   279   275   279      1
   280   275   280      1
   281   276   281      1
   282   281   282      1
   283   281   284      1
   284   281   285      1
   285   282   283      1
   286   282   286      1
   287   282   287      1
   288   283   288      1
   289   288   289      1
   290   288   291      1
   291   288   292      1
   292   289   290      1
   293   289   293      1
   294   289   294      1
   295   290   295      1
   296   295   296      1
   297   295   298      1
   298   295   299      1
   299   296   297      1
   300   296   300      1
   301   296   301      1
   302   297   302      1
   303   302   303      1
   304   302   305      1
   305   302   306      1
   306   303   304      1
   307   303   307      1
   308   303   308      1
   309   304   309      1
   310   309   310      1
   311   309   312      1
   312   309   313      1
   313   310   311      1
   314   310   314      1
   315   310   315      1
   316   311   316      1
   317   316   317      1
   318   316   319      1
   319   316   320      1
   320   317   318      1
   321   317   321      1
   322   317   322      1
   323   318   323      1
   324   323   324      1
   325   323   326      1
   326   323   327      1
   327   324   325      1
   328   324   328      1
   329   324   329      1
   330   325   330      1
   331   330   331      1
   332   330   333      1
   333   330   334      1
   334   331   332      1
   335   331   335      1
   336   331   336      1
   337   332   337      1
   338   337   338      1
   339   337   340      1
   340   337   341      1
   341   338   339      1
   342   338   342      1
   343   338   343      1
   344   339   344      1
   345   344   345      1
   346   344   347      1
   347   344   348      1
   348   345   346      1
   349   345   349      1
   350   345   350      1
   351   346   351      1
   352   351   352      1
   353   351   354      1
   354   351   355      1
   355   352   353      1
   356   352   356      1
   357   352   357      1
   358   353   358      1
   359   358   359      1
   360   358   361      1
   361   358   362      1
   362   359   360      1
   363   359   363      1
   364   359   364      1
   365   360   365      1
   366   365   366      1
   367   365   368      1
   368   365   369      1
   369   366   367      1
   370   366   370      1
   371   366   371      1
   372   367   372      1
   373   372   373      1
   374   372   375      1
   375   372   376      1
   376   373   374      1
   377   373   377      1
   378   373   378      1
   379   374   379      1
   380   379   380      1
   381   379   382      1
   382   379   383      1
   383   380   381      1
   384   380   384      1
   385   380   385      1
   386   381   386      1
   387   386   387      1
   388   386   389      1
   389   386   390      1
   390   387   388      1
   391   387   391      1
   392   387   392      1
   393   388   393      1
   394   393   394      1
   395   393   396      1
   396   393   397      1
   397   394   395      1
   398   394   398      1
   399   394   399      1
   400   395   400      1
   401   400   401      1
   402   400   403      1
   403   400   404      1
   404   401   402      1
   405   401   405      1
   406   401   406      1
   407   402   407      1
   408   407   408      1
   409   407   410      1
   410   407   411      1
   411   408   409      1
   412   408   412      1
   413   408   413      1
   414   409   414      1
   415   414   415      1
   416   414   417      1
   417   414   418      1
   418   415   416      1
   419   415   419      1
   420   415   420      1
   421   416   421      1
   422   421   422      1
   423   421   424      1
   424   421   425      1
   425   422   423      1
   426   422   426      1
   427   422   427      1
   428   423   428      1
   429   428   429      1
   430   428   431      1
   431   428   432      1
   432   429   430      1
   433   429   433      1
   434   429   434      1
   435   430   435      1
   436   435   436      1
   437   435   438      1
   438   435   439      1
   439   436   437      1
   440   436   440      1
   441   436   441      1
   442   437   442      1
   443   442   443      1
   444   442   445      1
   445   442   446      1
   446   443   444      1
   447   443   447      1
   448   443   448      1
   449   444   449      1
   450   449   450      1
   451   449   452      1
   452   449   453      1
   453   450   451      1
   454   450   454      1
   455   450   455      1
   456   451   456      1
   457   456   457      1
   458   456   459      1
   459   456   460      1
   460   457   458      1
   461   457   461      1
   462   457   462      1
   463   458   463      1
   464   463   464      1
   465   463   466      1
   466   463   467      1
   467   464   465      1
   468   464   468      1
   469   464   469      1
   470   465   470      1
   471   470   471      1
   472   470   473      1
   473   470   474      1
   474   471   472      1
   475   471   475      1
   476   471   476      1
   477   472   477      1
   478   477   478      1
   479   477   480      1
   480   477   481      1
   481   478   479      1
   482   478   482      1
   483   478   483      1
   484   479   484      1
   485   484   485      1
   486   484   487      1
   487   484   488      1
   488   485   486      1
   489   485   489      1
   490   485   490      1
   491   486   491      1
   492   491   492      1
   493   491   494      1
   494   491   495      1
   495   492   493      1
   496   492   496      1
   497   492   497      1
   498   493   498      1
   499   498   499      1
   500   498   501      1
   501   498   502      1
   502   499   500      1
   503   499   503      1
   504   499   504      1
   505   500   505      1
   506   505   506      1
   507   505   508      1
   508   505   509      1
   509   506   507      1
   510   506   510      1
   511   506   511      1
   512   507   512      1
   513   512   513      1
   514   512   515      1
   515   512   516      1
   516   513   514      1
   517   513   517      1
   518   513   518      1
   519   514   519      1
   520   519   520      1
   521   519   522      1
   522   519   523      1
   523   520   521      1
   524   520   524      1
   525   520   525      1
   526   521   526      1
   527   526   527      1
   528   526   529      1
   529   526   530      1
   530   527   528      1
   531   527   531      1
   532   527   532      1
   533   528   533      1
   534   533   534      1
   535   533   536      1
   536   533   537      1
   537   534   535      1
   538   534   538      1
   539   534   539      1
   540   535   540      1
   541   540   541      1
   542   540   543      1
   543   540   544      1
   544   541   542      1
   545   541   545      1
   546   541   546      1
   547   542   547      1
   548   547   548      1
   549   547   550      1
   550   547   551      1
   551   548   549      1
   552   548   552      1
   553   548   553      1
   554   549   554      1
   555   554   555      1
   556   554   557      1
   557   554   558      1
   558   555   556      1
   559   555   559      1
   560   555   560      1
   561   556   561      1
   562   561   562      1
   563   561   564      1
   564   561   565      1
   565   562   563      1
   566   562   566      1
   567   562   567      1
   568   563   568      1
   569   568   569      1
   570   568   571      1
   571   568   572      1
   572   569   570      1
   573   569   573      1
   574   569   574      1
   575   570   575      1
   576   575   576      1
   577   575   578      1
   578   575   579      1
   579   576   577      1
   580   576   580      1
   581   576   581      1
   582   577   582      1
   583   582   583      1
   584   582   585      1
   585   582   586      1
   586   583   584      1
   587   583   587      1
   588   583   588      1
   589   584   589      1
   590   589   590      1
   591   589   592      1
   592   589   593      1
   593   590   591      1
   594   590   594      1
   595   590   595      1
   596   591   596      1
   597   596   597      1
   598   596   599      1
   599   596   600      1
   600   597   598      1
   601   597   601      1
   602   597   602      1
   603   598   603      1
   604   603   604      1
   605   603   606      1
   606   603   607      1
   607   604   605      1
   608   604   608      1
   609   604   609      1
   610   605   610      1
   611   610   611      1
   612   610   613      1
   613   610   614      1
   614   611   612      1
   615   611   615      1
   616   611   616      1
   617   612   617      1
   618   617   618      1
   619   617   620      1
   620   617   621      1
   621   618   619      1
   622   618   622      1
   623   618   623      1
   624   619   624      1
   625   624   625      1
   626   624   627      1
   627   624   628      1
   628   625   626      1
   629   625   629      1
   630   625   630      1
   631   626   631      1
   632   631   632      1
   633   631   634      1
   634   631   635      1
   635   632   633      1
   636   632   636      1
   637   632   637      1
   638   633   638      1
   639   638   639      1
   640   638   641      1
   641   638   642      1
   642   639   640      1
   643   639   643      1
   644   639   644      1
   645   640   645      1
   646   645   646      1
   647   645   648      1
   648   645   649      1
   649   646   647      1
   650   646   650      1
   651   646   651      1
   652   647   652      1
   653   652   653      1
   654   652   655      1
   655   652   656      1
   656   653   654      1
   657   653   657      1
   658   653   658      1
   659   654   659      1
   660   659   660      1
   661   659   662      1
   662   659   663      1
   663   660   661      1
   664   660   664      1
   665   660   665      1
   666   661   666      1
   667   666   667      1
   668   666   669      1
   669   666   670      1
   670   667   668      1
   671   667   671      1
   672   667   672      1
   673   668   673      1
   674   673   674      1
   675   673   676      1
   676   673   677      1
   677   674   675      1
   678   674   678      1
   679   674   679      1
   680   675   680      1
   681   680   681      1
   682   680   683      1
   683   680   684      1
   684   681   682      1
   685   681   685      1
   686   681   686      1
   687   682   687      1
   688   687   688      1
   689   687   690      1
   690   687   691      1
   691   688   689      1
   692   688   692      1
   693   688   693      1
   694   689   694      1
   695   694   695      1
   696   694   697      1
   697   694   698      1
   698   695   696      1
   699   695   699      1
   700   695   700      1
   701   696   701      1
   702   701   702      1
   703   701   704      1
   704   701   705      1
   705   702   703      1
   706   702   706      1
   707   702   707      1
   708   703   708      1
   709   708   709      1
   710   708   711      1
   711   708   712      1
   712   709   710      1
   713   709   713      1
   714   709   714      1
   715   710   715      1
   716   715   716      1
   717   715   718      1
   718   715   719      1
   719   716   717      1
   720   716   720      1
   721   716   721      1
   722   717   722      1
   723   722   723      1
   724   722   725      1
   725   722   726      1
   726   723   724      1
   727   723   727      1
   728   723   728      1
   729   724   729      1
   730   729   730      1
   731   729   732      1
   732   729   733      1
   733   730   731      1
   734   730   734      1
   735   730   735      1
   736   731   736      1
   737   736   737      1
   738   736   739      1
   739   736   740      1
   740   737   738      1
   741   737   741      1
   742   737   742      1
   743   738   743      1
   744   743   744      1
   745   743   746      1
   746   743   747      1
   747   744   745      1
   748   744   748      1
   749   744   749      1
   750   745   750      1
   751   750   751      1
   752   750   753      1
   753   750   754      1
   754   751   752      1
   755   751   755      1
   756   751   756      1
   757   752   757      1
   758   757   758      1
   759   757   760      1
   760   757   761      1
   761   758   759      1
   762   758   762      1
   763   758   763      1
   764   759   764      1
   765   764   765      1
   766   764   767      1
   767   764   768      1
   768   765   766      1
   769   765   769      1
   770   765   770      1
   771   766   771      1
   772   771   772      1
   773   771   774      1
   774   771   775      1
   775   772   773      1
   776   772   776      1
   777   772   777      1
   778   773   778      1
   779   778   779      1
   780   778   781      1
   781   778   782      1
   782   779   780      1
   783   779   783      1
   784   779   784      1
   785   780   785      1
   786   785   786      1
   787   785   788      1
   788   785   789      1
   789   786   787      1
   790   786   790      1
   791   786   791      1
   792   787   792      1
   793   792   793      1
   794   792   795      1
   795   792   796      1
   796   793   794      1
   797   793   797      1
   798   793   798      1
   799   794   799      1
   800   799   800      1
   801   799   802      1
   802   799   803      1
   803   800   801      1
   804   800   804      1
   805   800   805      1
   806   801   806      1
   807   806   807      1
   808   806   809      1
   809   806   810      1
   810   807   808      1
   811   807   811      1
   812   807   812      1
   813   808   813      1
   814   813   814      1
   815   813   816      1
   816   813   817      1
   817   814   815      1
   818   814   818      1
   819   814   819      1
   820   815   820      1
   821   820   821      1
   822   820   823      1
   823   820   824      1
   824   821   822      1
   825   821   825      1
   826   821   826      1
   827   822   827      1
   828   827   828      1
   829   827   830      1
   830   827   831      1
   831   828   829      1
   832   828   832      1
   833   828   833      1
   834   829   834      1
   835   834   835      1
   836   834   837      1
   837   834   838      1
   838   835   836      1
   839   835   839      1
   840   835   840      1
   841   836   841      1
   842   841   842      1
   843   841   844      1
   844   841   845      1
   845   842   843      1
   846   842   846      1
   847   842   847      1
   848   843   848      1
   849   848   849      1
   850   848   851      1
   851   848   852      1
   852   849   850      1
   853   849   853      1
   854   849   854      1
   855   850   855      1
   856   855   856      1
   857   855   858      1
   858   855   859      1
   859   856   857      1
   860   856   860      1
   861   856   861      1
   862   857   862      1
   863   862   863      1
   864   862   865      1
   865   862   866      1
   866   863   864      1
   867   863   867      1
   868   863   868      1
   869   864   869      1
   870   869   870      1
   871   869   872      1
   872   869   873      1
   873   870   871      1
   874   870   874      1
   875   870   875      1
   876   871   876      1
   877   876   877      1
   878   876   879      1
   879   876   880      1
   880   877   878      1
   881   877   881      1
   882   877   882      1
   883   878   883      1
   884   883   884      1
   885   883   886      1
   886   883   887      1
   887   884   885      1
   888   884   888      1
   889   884   889      1
   890   885   890      1
   891   890   891      1
   892   890   893      1
   893   890   894      1
   894   891   892      1
   895   891   895      1
   896   891   896      1
   897   892   897      1
   898   897   898      1
   899   897   900      1
   900   897   901      1
   901   898   899      1
   902   898   902      1
   903   898   903      1
   904   899   904      1
   905   904   905      1
   906   904   907      1
   907   904   908      1
   908   905   906      1
   909   905   909      1
   910   905   910      1
   911   906   911      1
   912   911   912      1
   913   911   914      1
   914   911   915      1
   915   912   913      1
   916   912   916      1
   917   912   917      1
   918   913   918      1
   919   918   919      1
   920   918   921      1
   921   918   922      1
   922   919   920      1
   923   919   923      1
   924   919   924      1
   925   920   925      1
   926   925   926      1
   927   925   928      1
   928   925   929      1
   929   926   927      1
   930   926   930      1
   931   926   931      1
   932   927   932      1
   933   932   933      1
   934   932   935      1
   935   932   936      1
   936   933   934      1
   937   933   937      1
   938   933   938      1
   939   934   939      1
   940   939   940      1
   941   939   942      1
   942   939   943      1
   943   940   941      1
   944   940   944      1
   945   940   945      1
   946   941   946      1
   947   946   947      1
   948   946   949      1
   949   946   950      1
   950   947   948      1
   951   947   951      1
   952   947   952      1
   953   948   953      1
   954   953   954      1
   955   953   956      1
   956   953   957      1
   957   954   955      1
   958   954   958      1
   959   954   959      1
   960   955   960      1
   961   960   961      1
   962   960   963      1
   963   960   964      1
   964   961   962      1
   965   961   965      1
   966   961   966      1
   967   962   967      1
   968   967   968      1
   969   967   970      1
   970   967   971      1
   971   968   969      1
   972   968   972      1
   973   968   973      1
   974   969   974      1
   975   974   975      1
   976   974   977      1
   977   974   978      1
   978   975   976      1
   979   975   979      1
   980   975   980      1
   981   976   981      1
   982   981   982      1
   983   981   984      1
   984   981   985      1
   985   982   983      1
   986   982   986      1
   987   982   987      1
   988   983   988      1
   989   988   989      1
   990   988   991      1
   991   988   992      1
   992   989   990      1
   993   989   993      1
   994   989   994      1
   995   990   995      1
   996   995   996      1
   997   995   998      1
   998   995   999      1
   999   996   997      1
  1000   996  1000      1
  1001   996  1001      1
  1002   997  1002      1
  1003  1002  1003      1
  1004  1002  1005      1
  1005  1002  1006      1
  1006  1003  1004      1
  1007  1003  1007      1
  1008  1003  1008      1
  1009  1004  1009      1
  1010  1009  1010      1
  1011  1009  1012      1
  1012  1009  1013      1
  1013  1010  1011      1
  1014  1010  1014      1
  1015  1010  1015      1
  1016  1011  1016      1
  1017  1016  1017      1
  1018  1016  1019      1
  1019  1016  1020      1
  1020  1017  1018      1
  1021  1017  1021      1
  1022  1017  1022      1
  1023  1018  1023      1
  1024  1023  1024      1
  1025  1023  1026      1
  1026  1023  1027      1
  1027  1024  1025      1
  1028  1024  1028      1
  1029  1024  1029      1
  1030  1025  1030      1
  1031  1030  1031      1
  1032  1030  1033      1
  1033  1030  1034      1
  1034  1031  1032      1
  1035  1031  1035      1
  1036  1031  1036      1
  1037  1032  1037      1
  1038  1037  1038      1
  1039  1037  1040      1
  1040  1037  1041      1
  1041  1038  1039      1
  1042  1038  1042      1
  1043  1038  1043      1
  1044  1039  1044      1
  1045  1044  1045      1
  1046  1044  1047      1
  1047  1044  1048      1
  1048  1045  1046      1
  1049  1045  1049      1
  1050  1045  1050      1
  1051  1046  1051      1
  1052  1051  1052      1
  1053  1051  1054      1
  1054  1051  1055      1
  1055  1052  1053      1
  1056  1052  1056      1
  1057  1052  1057      1
  1058  1053  1058      1
  1059  1058  1059      1
  1060  1058  1061      1
  1061  1058  1062      1
  1062  1059  1060      1
  1063  1059  1063      1
  1064  1059  1064      1
  1065  1060  1065      1
  1066  1065  1066      1
  1067  1065  1068      1
  1068  1065  1069      1
  1069  1066  1067      1
  1070  1066  1070      1
  1071  1066  1071      1
  1072  1067  1072      1
  1073  1072  1073      1
  1074  1072  1075      1
  1075  1072  1076      1
  1076  1073  1074      1
  1077  1073  1077      1
  1078  1073  1078      1
  1079  1074  1079      1
  1080  1079  1080      1
  1081  1079  1082      1
  1082  1079  1083      1
  1083  1080  1081      1
  1084  1080  1084      1
  1085  1080  1085      1
  1086  1081  1086      1
  1087  1086  1087      1
  1088  1086  1089      1
  1089  1086  1090      1
  1090  1087  1088      1
  1091  1087  1091      1
  1092  1087  1092      1
  1093  1088  1093      1
  1094  1093  1094      1
  1095  1093  1096      1
  1096  1093  1097      1
  1097  1094  1095      1
  1098  1094  1098      1
  1099  1094  1099      1
  1100  1095  1100      1
  1101  1100  1101      1
  1102  1100  1103      1
  1103  1100  1104      1
  1104  1101  1102      1
  1105  1101  1105      1
  1106  1101  1106      1
  1107  1102  1107      1
  1108  1107  1108      1
  1109  1107  1110      1
  1110  1107  1111      1
  1111  1108  1109      1
  1112  1108  1112      1
  1113  1108  1113      1
  1114  1109  1114      1
  1115  1114  1115      1
  1116  1114  1117      1
  1117  1114  1118      1
  1118  1115  1116      1
  1119  1115  1119      1
  1120  1115  1120      1
  1121  1116  1121      1
  1122  1121  1122      1
  1123  1121  1124      1
  1124  1121  1125      1
  1125  1122  1123      1
  1126  1122  1126      1
  1127  1122  1127      1
  1128  1123  1128      1
  1129  1128  1129      1
  1130  1128  1131      1
  1131  1128  1132      1
  1132  1129  1130      1
  1133  1129  1133      1
  1134  1129  1134      1
  1135  1130  1135      1
  1136  1135  1136      1
  1137  1135  1138      1
  1138  1135  1139      1
  1139  1136  1137      1
  1140  1136  1140      1
  1141  1136  1141      1
  1142  1137  1142      1
  1143  1142  1143      1
  1144  1142  1145      1
  1145  1142  1146      1
  1146  1143  1144      1
  1147  1143  1147      1
  1148  1143  1148      1
  1149  1144  1149      1
  1150  1149  1150      1
  1151  1149  1152      1
  1152  1149  1153      1
  1153  1150  1151      1
  1154  1150  1154      1
  1155  1150  1155      1
  1156  1151  1156      1
  1157  1156  1157      1
  1158  1156  1159      1
  1159  1156  1160      1
  1160  1157  1158      1
  1161  1157  1161      1
  1162  1157  1162      1
  1163  1158  1163      1
  1164  1163  1164      1
  1165  1163  1166      1
  1166  1163  1167      1
  1167  1164  1165      1
  1168  1164  1168      1
  1169  1164  1169      1
  1170  1165  1170      1
  1171  1170  1171      1
  1172  1170  1173      1
  1173  1170  1174      1
  1174  1171  1172      1
  1175  1171  1175      1
  1176  1171  1176      1
  1177  1172  1177      1
  1178  1177  1178      1
  1179  1177  1180      1
  1180  1177  1181      1
  1181  1178  1179      1
  1182  1178  1182      1
  1183  1178  1183      1
  1184  1179  1184      1
  1185  1184  1185      1
  1186  1184  1187      1
  1187  1184  1188      1
  1188  1185  1186      1
  1189  1185  1189      1
  1190  1185  1190      1
  1191  1186  1191      1
  1192  1191  1192      1
  1193  1191  1194      1
  1194  1191  1195      1
  1195  1192  1193      1
  1196  1192  1196      1
  1197  1192  1197      1
  1198  1193  1198      1
