###
### Created by PolyChef-cpp17 on Mon May 12 10:39:09 2025
###

@<TRIPOS>MOLECULE
NO_INFO
471 470 1 0 0
SMALL
USER_CHARGES


@<TRIPOS>ATOM
      1 C          75.8439  143.9259   79.3134 C.3       0      M_A    0.0000
      2 C          77.0942  144.7521   79.6001 C.3       0      M_A    0.0000
      3 O          77.1030  145.9386   78.8063 O.3       0      M_A    0.0000
      4 H          75.2861  144.3347   78.4641 H         0      M_A    0.0000
      5 H          75.1867  143.9616   80.1897 H         0      M_A    0.0000
      6 H          78.0026  144.1871   79.3564 H         0      M_A    0.0000
      7 H          77.1557  144.9879   80.6723 H         0      M_A    0.0000
      8 C          75.9232  146.6938   78.9920 C.3       1      M_A    0.0000
      9 C          75.6173  147.5853   77.7921 C.3       1      M_A    0.0000
     10 O          74.2358  147.9441   77.7743 O.3       1      M_A    0.0000
     11 H          75.0916  146.0122   79.2002 H         1      M_A    0.0000
     12 H          76.0632  147.3257   79.8766 H         1      M_A    0.0000
     13 H          75.8337  147.0646   76.8509 H         1      M_A    0.0000
     14 H          76.2616  148.4762   77.8072 H         1      M_A    0.0000
     15 C          74.0420  149.2286   77.2181 C.3       2      M_A    0.0000
     16 C          72.7039  149.8362   77.6287 C.3       2      M_A    0.0000
     17 O          72.8570  151.2215   77.9375 O.3       2      M_A    0.0000
     18 H          74.8762  149.8747   77.5117 H         2      M_A    0.0000
     19 H          74.0669  149.1305   76.1268 H         2      M_A    0.0000
     20 H          72.3066  149.3419   78.5240 H         2      M_A    0.0000
     21 H          71.9583  149.6834   76.8352 H         2      M_A    0.0000
     22 C          71.6418  151.7897   78.3816 C.3       3      M_A    0.0000
     23 C          71.8657  152.8829   79.4223 C.3       3      M_A    0.0000
     24 O          70.8904  153.9157   79.2810 O.3       3      M_A    0.0000
     25 H          71.0900  152.1740   77.5171 H         3      M_A    0.0000
     26 H          71.0403  150.9909   78.8304 H         3      M_A    0.0000
     27 H          72.8533  153.3448   79.3003 H         3      M_A    0.0000
     28 H          71.8489  152.4528   80.4341 H         3      M_A    0.0000
     29 C          70.8406  154.7404   80.4275 C.3       4      M_A    0.0000
     30 C          72.2300  155.1802   80.8791 C.3       4      M_A    0.0000
     31 O          72.1761  156.4773   81.4728 O.3       4      M_A    0.0000
     32 H          70.2009  155.6045   80.2186 H         4      M_A    0.0000
     33 H          70.3702  154.1673   81.2347 H         4      M_A    0.0000
     34 H          72.9199  155.2370   80.0279 H         4      M_A    0.0000
     35 H          72.6556  154.4405   81.5725 H         4      M_A    0.0000
     36 C          72.1301  156.3991   82.8830 C.3       5      M_A    0.0000
     37 C          71.8004  157.7448   83.5222 C.3       5      M_A    0.0000
     38 O          70.4548  157.7564   83.9986 O.3       5      M_A    0.0000
     39 H          71.4028  155.6341   83.1750 H         5      M_A    0.0000
     40 H          73.1151  156.0714   83.2347 H         5      M_A    0.0000
     41 H          71.8982  158.5598   82.7941 H         5      M_A    0.0000
     42 H          72.5126  157.9658   84.3303 H         5      M_A    0.0000
     43 C          69.9047  159.0576   83.9629 C.3       6      M_A    0.0000
     44 C          68.5176  159.1121   84.5964 C.3       6      M_A    0.0000
     45 O          68.4339  160.1925   85.5257 O.3       6      M_A    0.0000
     46 H          70.5931  159.7503   84.4586 H         6      M_A    0.0000
     47 H          69.8271  159.3620   82.9129 H         6      M_A    0.0000
     48 H          68.3008  158.1879   85.1467 H         6      M_A    0.0000
     49 H          67.7472  159.1950   83.8164 H         6      M_A    0.0000
     50 C          67.0918  160.4930   85.8500 C.3       7      M_A    0.0000
     51 C          66.9509  161.8692   86.4935 C.3       7      M_A    0.0000
     52 O          65.9382  162.6289   85.8338 O.3       7      M_A    0.0000
     53 H          66.4795  160.4151   84.9453 H         7      M_A    0.0000
     54 H          66.7376  159.7334   86.5563 H         7      M_A    0.0000
     55 H          67.8877  162.4355   86.4185 H         7      M_A    0.0000
     56 H          66.7377  161.7661   87.5673 H         7      M_A    0.0000
     57 C          64.6503  162.1074   86.0910 C.3       8      M_A    0.0000
     58 C          63.6916  163.1752   86.6096 C.3       8      M_A    0.0000
     59 O          62.7000  163.4767   85.6279 O.3       8      M_A    0.0000
     60 H          64.2653  161.6399   85.1785 H         8      M_A    0.0000
     61 H          64.7500  161.3221   86.8491 H         8      M_A    0.0000
     62 H          64.2257  164.1069   86.8339 H         8      M_A    0.0000
     63 H          63.2330  162.8473   87.5536 H         8      M_A    0.0000
     64 C          61.6704  164.2829   86.1634 C.3       9      M_A    0.0000
     65 C          61.2022  165.3475   85.1756 C.3       9      M_A    0.0000
     66 O          59.8116  165.6175   85.3527 O.3       9      M_A    0.0000
     67 H          60.8398  163.6410   86.4759 H         9      M_A    0.0000
     68 H          62.0618  164.7783   87.0594 H         9      M_A    0.0000
     69 H          61.3423  165.0114   84.1406 H         9      M_A    0.0000
     70 H          61.8043  166.2605   85.2880 H         9      M_A    0.0000
     71 C          59.1990  165.9944   84.1363 C.3      10      M_A    0.0000
     72 C          58.4992  167.3463   84.2407 C.3      10      M_A    0.0000
     73 O          59.1624  168.3170   83.4309 O.3      10      M_A    0.0000
     74 H          59.9538  166.0002   83.3428 H        10      M_A    0.0000
     75 H          58.4564  165.2296   83.8819 H        10      M_A    0.0000
     76 H          58.5120  167.7163   85.2736 H        10      M_A    0.0000
     77 H          57.4404  167.2482   83.9609 H        10      M_A    0.0000
     78 C          58.3388  169.4398   83.1904 C.3      11      M_A    0.0000
     79 C          58.7211  170.1675   81.9049 C.3      11      M_A    0.0000
     80 O          57.6072  170.8998   81.3941 O.3      11      M_A    0.0000
     81 H          57.2926  169.1167   83.1655 H        11      M_A    0.0000
     82 H          58.4529  170.1286   84.0352 H        11      M_A    0.0000
     83 H          59.0308  169.4567   81.1286 H        11      M_A    0.0000
     84 H          59.5841  170.8251   82.0835 H        11      M_A    0.0000
     85 C          57.2506  171.9642   82.2524 C.3      12      M_A    0.0000
     86 C          55.8868  172.5520   81.9021 C.3      12      M_A    0.0000
     87 O          55.2456  173.0606   83.0717 O.3      12      M_A    0.0000
     88 H          57.2743  171.6109   83.2888 H        12      M_A    0.0000
     89 H          58.0106  172.7475   82.1518 H        12      M_A    0.0000
     90 H          55.2280  171.7867   81.4728 H        12      M_A    0.0000
     91 H          55.9954  173.3317   81.1345 H        12      M_A    0.0000
     92 C          53.8739  173.3112   82.8421 C.3      13      M_A    0.0000
     93 C          53.5350  174.7948   82.9521 C.3      13      M_A    0.0000
     94 O          53.3705  175.3681   81.6552 O.3      13      M_A    0.0000
     95 H          53.5979  172.9145   81.8593 H        13      M_A    0.0000
     96 H          53.2999  172.7595   83.5953 H        13      M_A    0.0000
     97 H          54.3401  175.3451   83.4549 H        13      M_A    0.0000
     98 H          52.6347  174.9337   83.5679 H        13      M_A    0.0000
     99 C          53.3164  176.7789   81.7164 C.3      14      M_A    0.0000
    100 C          53.0766  177.4043   80.3455 C.3      14      M_A    0.0000
    101 O          51.9994  178.3392   80.4034 O.3      14      M_A    0.0000
    102 H          52.5387  177.0761   82.4280 H        14      M_A    0.0000
    103 H          54.2764  177.1364   82.1062 H        14      M_A    0.0000
    104 H          52.8081  176.6391   79.6065 H        14      M_A    0.0000
    105 H          53.9982  177.8783   79.9781 H        14      M_A    0.0000
    106 C          51.6389  178.7935   79.1148 C.3      15      M_A    0.0000
    107 C          50.3548  179.6174   79.1348 C.3      15      M_A    0.0000
    108 O          50.6502  181.0078   79.0027 O.3      15      M_A    0.0000
    109 H          52.4706  179.3678   78.6927 H        15      M_A    0.0000
    110 H          51.4863  177.9145   78.4780 H        15      M_A    0.0000
    111 H          49.8176  179.4842   80.0821 H        15      M_A    0.0000
    112 H          49.6728  179.2765   78.3425 H        15      M_A    0.0000
    113 C          51.1841  181.5389   80.1984 C.3      16      M_A    0.0000
    114 C          50.3255  182.6692   80.7583 C.3      16      M_A    0.0000
    115 O          49.6924  182.2628   81.9715 O.3      16      M_A    0.0000
    116 H          51.2989  180.7307   80.9286 H        16      M_A    0.0000
    117 H          52.1839  181.9296   79.9767 H        16      M_A    0.0000
    118 H          49.5337  182.9476   80.0518 H        16      M_A    0.0000
    119 H          50.9363  183.5710   80.9086 H        16      M_A    0.0000
    120 C          48.3012  182.5085   81.9364 C.3      17      M_A    0.0000
    121 C          47.9210  183.7680   82.7093 C.3      17      M_A    0.0000
    122 O          47.5370  184.8093   81.8115 O.3      17      M_A    0.0000
    123 H          47.9758  182.5719   80.8926 H        17      M_A    0.0000
    124 H          47.7955  181.6482   82.3896 H        17      M_A    0.0000
    125 H          48.7693  184.1383   83.2983 H        17      M_A    0.0000
    126 H          47.1199  183.5445   83.4285 H        17      M_A    0.0000
    127 C          48.6466  185.3068   81.0916 C.3      18      M_A    0.0000
    128 C          48.2222  186.1133   79.8678 C.3      18      M_A    0.0000
    129 O          48.4777  187.5030   80.0710 O.3      18      M_A    0.0000
    130 H          49.2689  185.9068   81.7640 H        18      M_A    0.0000
    131 H          49.2456  184.4504   80.7615 H        18      M_A    0.0000
    132 H          47.1475  186.0013   79.6772 H        18      M_A    0.0000
    133 H          48.7355  185.7394   78.9702 H        18      M_A    0.0000
    134 C          48.5095  188.2075   78.8465 C.3      19      M_A    0.0000
    135 C          47.1701  188.8649   78.5274 C.3      19      M_A    0.0000
    136 O          47.3704  190.1090   77.8566 O.3      19      M_A    0.0000
    137 H          49.3152  188.9485   78.8813 H        19      M_A    0.0000
    138 H          48.7514  187.4920   78.0522 H        19      M_A    0.0000
    139 H          46.6067  189.0737   79.4454 H        19      M_A    0.0000
    140 H          46.5461  188.1845   77.9302 H        19      M_A    0.0000
    141 C          46.1432  190.6846   77.4569 C.3      20      M_A    0.0000
    142 C          46.2624  192.1882   77.2263 C.3      20      M_A    0.0000
    143 O          45.7520  192.5393   75.9403 O.3      20      M_A    0.0000
    144 H          45.7853  190.1738   76.5567 H        20      M_A    0.0000
    145 H          45.4116  190.5049   78.2530 H        20      M_A    0.0000
    146 H          47.3111  192.5090   77.2623 H        20      M_A    0.0000
    147 H          45.7441  192.7370   78.0258 H        20      M_A    0.0000
    148 C          46.3788  193.7004   75.4344 C.3      21      M_A    0.0000
    149 C          45.3924  194.6214   74.7223 C.3      21      M_A    0.0000
    150 O          45.9179  195.9458   74.6351 O.3      21      M_A    0.0000
    151 H          46.8833  194.2207   76.2555 H        21      M_A    0.0000
    152 H          47.1476  193.3842   74.7202 H        21      M_A    0.0000
    153 H          44.4438  194.6798   75.2706 H        21      M_A    0.0000
    154 H          45.1498  194.2211   73.7274 H        21      M_A    0.0000
    155 C          47.0191  196.0082   73.7517 C.3      22      M_A    0.0000
    156 C          46.7474  196.9204   72.5591 C.3      22      M_A    0.0000
    157 O          47.8926  197.7225   72.2714 O.3      22      M_A    0.0000
    158 H          47.9043  196.3363   74.3067 H        22      M_A    0.0000
    159 H          47.2148  194.9941   73.3850 H        22      M_A    0.0000
    160 H          45.9132  197.6018   72.7680 H        22      M_A    0.0000
    161 H          46.4473  196.3238   71.6856 H        22      M_A    0.0000
    162 C          47.8105  198.2984   70.9836 C.3      23      M_A    0.0000
    163 C          46.4519  198.9448   70.7293 C.3      23      M_A    0.0000
    164 O          46.5008  199.7719   69.5668 O.3      23      M_A    0.0000
    165 H          48.6220  199.0241   70.8642 H        23      M_A    0.0000
    166 H          47.9673  197.5017   70.2475 H        23      M_A    0.0000
    167 H          46.1558  199.5809   71.5728 H        23      M_A    0.0000
    168 H          45.6751  198.1720   70.6379 H        23      M_A    0.0000
    169 C          46.6098  199.0008   68.3877 C.3      24      M_A    0.0000
    170 C          45.2563  198.7803   67.7187 C.3      24      M_A    0.0000
    171 O          44.9824  199.8264   66.7867 O.3      24      M_A    0.0000
    172 H          47.3133  199.4892   67.7050 H        24      M_A    0.0000
    173 H          47.0336  198.0273   68.6596 H        24      M_A    0.0000
    174 H          44.4473  198.7806   68.4599 H        24      M_A    0.0000
    175 H          45.2292  197.7945   67.2326 H        24      M_A    0.0000
    176 C          44.2631  200.8821   67.3909 C.3      25      M_A    0.0000
    177 C          42.9770  201.2061   66.6364 C.3      25      M_A    0.0000
    178 O          41.8389  200.9845   67.4691 O.3      25      M_A    0.0000
    179 H          44.0545  200.6214   68.4340 H        25      M_A    0.0000
    180 H          44.9059  201.7698   67.3933 H        25      M_A    0.0000
    181 H          42.8678  200.5646   65.7531 H        25      M_A    0.0000
    182 H          43.0053  202.2406   66.2650 H        25      M_A    0.0000
    183 C          40.6416  200.9812   66.7186 C.3      26      M_A    0.0000
    184 C          39.7087  202.1196   67.1208 C.3      26      M_A    0.0000
    185 O          39.4264  202.9556   65.9985 O.3      26      M_A    0.0000
    186 H          40.8880  201.0299   65.6525 H        26      M_A    0.0000
    187 H          40.1339  200.0266   66.8981 H        26      M_A    0.0000
    188 H          40.1684  202.7498   67.8924 H        26      M_A    0.0000
    189 H          38.7856  201.7162   67.5611 H        26      M_A    0.0000
    190 C          40.5591  203.7096   65.6173 C.3      27      M_A    0.0000
    191 C          40.1878  205.1254   65.1863 C.3      27      M_A    0.0000
    192 O          40.0706  205.9803   66.3236 O.3      27      M_A    0.0000
    193 H          41.2747  203.7236   66.4464 H        27      M_A    0.0000
    194 H          41.0376  203.1966   64.7752 H        27      M_A    0.0000
    195 H          39.2220  205.1368   64.6659 H        27      M_A    0.0000
    196 H          40.9285  205.5109   64.4710 H        27      M_A    0.0000
    197 C          39.8578  207.3238   65.9409 C.3      28      M_A    0.0000
    198 C          38.5624  207.4983   65.1538 C.3      28      M_A    0.0000
    199 O          37.7451  208.5046   65.7516 O.3      28      M_A    0.0000
    200 H          39.8649  207.9556   66.8356 H        28      M_A    0.0000
    201 H          40.6999  207.6322   65.3108 H        28      M_A    0.0000
    202 H          37.9816  206.5675   65.1422 H        28      M_A    0.0000
    203 H          38.7855  207.7361   64.1037 H        28      M_A    0.0000
    204 C          38.4869  209.6743   66.0317 C.3      29      M_A    0.0000
    205 C          37.7978  210.9305   65.5069 C.3      29      M_A    0.0000
    206 O          38.1168  212.0555   66.3258 O.3      29      M_A    0.0000
    207 H          38.6578  209.7390   67.1115 H        29      M_A    0.0000
    208 H          39.4649  209.5774   65.5465 H        29      M_A    0.0000
    209 H          36.7069  210.8141   65.5192 H        29      M_A    0.0000
    210 H          38.0777  211.1069   64.4584 H        29      M_A    0.0000
    211 C          39.0897  212.8795   65.7164 C.3      30      M_A    0.0000
    212 C          38.6553  214.3414   65.6684 C.3      30      M_A    0.0000
    213 O          39.7228  215.1945   66.0815 O.3      30      M_A    0.0000
    214 H          40.0391  212.7665   66.2506 H        30      M_A    0.0000
    215 H          39.2411  212.5209   64.6918 H        30      M_A    0.0000
    216 H          37.8101  214.5222   66.3443 H        30      M_A    0.0000
    217 H          38.3043  214.6002   64.6591 H        30      M_A    0.0000
    218 C          39.3196  216.5485   66.1144 C.3      31      M_A    0.0000
    219 C          40.4865  217.5010   65.8710 C.3      31      M_A    0.0000
    220 O          40.0340  218.6929   65.2287 O.3      31      M_A    0.0000
    221 H          38.5236  216.7023   65.3781 H        31      M_A    0.0000
    222 H          38.8978  216.7505   67.1056 H        31      M_A    0.0000
    223 H          41.2389  217.0414   65.2181 H        31      M_A    0.0000
    224 H          40.9964  217.7264   66.8188 H        31      M_A    0.0000
    225 C          41.0478  219.2658   64.4282 C.3      32      M_A    0.0000
    226 C          41.3688  220.6978   64.8460 C.3      32      M_A    0.0000
    227 O          42.7719  220.9438   64.7529 O.3      32      M_A    0.0000
    228 H          41.9396  218.6317   64.4729 H        32      M_A    0.0000
    229 H          40.6957  219.2699   63.3903 H        32      M_A    0.0000
    230 H          41.0719  220.8790   65.8866 H        32      M_A    0.0000
    231 H          40.7966  221.4092   64.2334 H        32      M_A    0.0000
    232 C          43.1149  221.5174   63.5078 C.3      33      M_A    0.0000
    233 C          42.5733  222.9362   63.3606 C.3      33      M_A    0.0000
    234 O          43.6310  223.8473   63.0627 O.3      33      M_A    0.0000
    235 H          44.2038  221.4960   63.3924 H        33      M_A    0.0000
    236 H          42.6855  220.8902   62.7181 H        33      M_A    0.0000
    237 H          42.1006  223.2745   64.2911 H        33      M_A    0.0000
    238 H          41.7909  222.9656   62.5885 H        33      M_A    0.0000
    239 C          44.4782  224.0386   64.1774 C.3      34      M_A    0.0000
    240 C          45.7589  224.7795   63.8048 C.3      34      M_A    0.0000
    241 O          45.4959  226.1698   63.6156 O.3      34      M_A    0.0000
    242 H          43.9260  224.5720   64.9585 H        34      M_A    0.0000
    243 H          44.7421  223.0513   64.5735 H        34      M_A    0.0000
    244 H          46.1769  224.3936   62.8666 H        34      M_A    0.0000
    245 H          46.5278  224.6191   64.5743 H        34      M_A    0.0000
    246 C          44.7201  226.3964   62.4564 C.3      35      M_A    0.0000
    247 C          44.5219  227.8838   62.1799 C.3      35      M_A    0.0000
    248 O          44.2072  228.0995   60.8043 O.3      35      M_A    0.0000
    249 H          45.1945  225.8959   61.6055 H        35      M_A    0.0000
    250 H          43.7400  225.9306   62.6105 H        35      M_A    0.0000
    251 H          45.4358  228.4493   62.4004 H        35      M_A    0.0000
    252 H          43.7405  228.2912   62.8375 H        35      M_A    0.0000
    253 C          43.5875  229.3540   60.6061 C.3      36      M_A    0.0000
    254 C          42.6414  229.3442   59.4090 C.3      36      M_A    0.0000
    255 O          41.2960  229.5640   59.8326 O.3      36      M_A    0.0000
    256 H          43.0621  229.6418   61.5229 H        36      M_A    0.0000
    257 H          44.3756  230.0949   60.4291 H        36      M_A    0.0000
    258 H          42.6697  228.3757   58.8942 H        36      M_A    0.0000
    259 H          42.9560  230.0957   58.6706 H        36      M_A    0.0000
    260 C          40.3977  229.5257   58.7425 C.3      37      M_A    0.0000
    261 C          39.0862  230.2406   59.0539 C.3      37      M_A    0.0000
    262 O          38.7395  231.1338   57.9956 O.3      37      M_A    0.0000
    263 H          40.8850  229.9592   57.8626 H        37      M_A    0.0000
    264 H          40.1840  228.4743   58.5188 H        37      M_A    0.0000
    265 H          39.1719  230.8360   59.9715 H        37      M_A    0.0000
    266 H          38.2878  229.5067   59.2355 H        37      M_A    0.0000
    267 C          37.5446  231.8327   58.2792 C.3      38      M_A    0.0000
    268 C          37.2790  232.9480   57.2725 C.3      38      M_A    0.0000
    269 O          36.2383  232.5711   56.3710 O.3      38      M_A    0.0000
    270 H          36.7128  231.1208   58.3092 H        38      M_A    0.0000
    271 H          37.6405  232.2725   59.2786 H        38      M_A    0.0000
    272 H          38.1736  233.1567   56.6726 H        38      M_A    0.0000
    273 H          37.0343  233.8827   57.7974 H        38      M_A    0.0000
    274 C          36.4544  233.1033   55.0799 C.3      39      M_A    0.0000
    275 C          35.5066  234.2578   54.7687 C.3      39      M_A    0.0000
    276 O          36.2224  235.3532   54.1981 O.3      39      M_A    0.0000
    277 H          37.5004  233.4162   54.9929 H        39      M_A    0.0000
    278 H          36.2868  232.3010   54.3523 H        39      M_A    0.0000
    279 H          35.0199  234.6232   55.6816 H        39      M_A    0.0000
    280 H          34.6997  233.9176   54.1037 H        39      M_A    0.0000
    281 C          37.1711  234.9124   53.2481 C.3      40      M_A    0.0000
    282 C          37.1286  235.7407   51.9674 C.3      40      M_A    0.0000
    283 O          38.4076  235.7479   51.3333 O.3      40      M_A    0.0000
    284 H          38.1680  234.9359   53.7011 H        40      M_A    0.0000
    285 H          36.9429  233.8688   53.0031 H        40      M_A    0.0000
    286 H          36.8628  236.7832   52.1827 H        40      M_A    0.0000
    287 H          36.3500  235.3567   51.2927 H        40      M_A    0.0000
    288 C          39.3450  236.5081   52.0684 C.3      41      M_A    0.0000
    289 C          39.9503  237.6343   51.2357 C.3      41      M_A    0.0000
    290 O          39.2269  238.8487   51.4352 O.3      41      M_A    0.0000
    291 H          38.8602  236.8992   52.9693 H        41      M_A    0.0000
    292 H          40.1474  235.8342   52.3899 H        41      M_A    0.0000
    293 H          39.9067  237.3980   50.1652 H        41      M_A    0.0000
    294 H          41.0149  237.7580   51.4814 H        41      M_A    0.0000
    295 C          38.6436  239.3068   50.2324 C.3      42      M_A    0.0000
    296 C          37.2305  238.7653   50.0370 C.3      42      M_A    0.0000
    297 O          36.7775  239.0172   48.7069 O.3      42      M_A    0.0000
    298 H          38.6517  240.4019   50.2258 H        42      M_A    0.0000
    299 H          39.2720  238.9656   49.4018 H        42      M_A    0.0000
    300 H          36.5252  239.2523   50.7220 H        42      M_A    0.0000
    301 H          37.1993  237.6920   50.2735 H        42      M_A    0.0000
    302 C          36.9758  237.8947   47.8717 C.3      43      M_A    0.0000
    303 C          36.5568  238.1702   46.4306 C.3      43      M_A    0.0000
    304 O          37.7007  238.2233   45.5782 O.3      43      M_A    0.0000
    305 H          38.0263  237.5897   47.9265 H        43      M_A    0.0000
    306 H          36.3703  237.0704   48.2656 H        43      M_A    0.0000
    307 H          36.0414  239.1353   46.3493 H        43      M_A    0.0000
    308 H          35.8404  237.4081   46.0914 H        43      M_A    0.0000
    309 C          37.3909  237.7901   44.2693 C.3      44      M_A    0.0000
    310 C          37.6790  238.8652   43.2256 C.3      44      M_A    0.0000
    311 O          38.9566  238.6509   42.6258 O.3      44      M_A    0.0000
    312 H          37.9484  236.8720   44.0554 H        44      M_A    0.0000
    313 H          36.3233  237.5442   44.2396 H        44      M_A    0.0000
    314 H          37.6939  239.8624   43.6828 H        44      M_A    0.0000
    315 H          36.8806  238.8840   42.4698 H        44      M_A    0.0000
    316 C          38.9769  239.0874   41.2820 C.3      45      M_A    0.0000
    317 C          40.2866  239.7837   40.9242 C.3      45      M_A    0.0000
    318 O          41.2739  238.8264   40.5412 O.3      45      M_A    0.0000
    319 H          38.7924  238.2307   40.6251 H        45      M_A    0.0000
    320 H          38.1506  239.7943   41.1447 H        45      M_A    0.0000
    321 H          40.6833  240.3391   41.7832 H        45      M_A    0.0000
    322 H          40.1179  240.5241   40.1290 H        45      M_A    0.0000
    323 C          40.6827  237.6161   40.1141 C.3      46      M_A    0.0000
    324 C          41.6974  236.6788   39.4661 C.3      46      M_A    0.0000
    325 O          41.3698  235.3174   39.7441 O.3      46      M_A    0.0000
    326 H          40.1914  237.1376   40.9680 H        46      M_A    0.0000
    327 H          39.9067  237.8609   39.3798 H        46      M_A    0.0000
    328 H          42.7059  236.8606   39.8580 H        46      M_A    0.0000
    329 H          41.7486  236.8647   38.3837 H        46      M_A    0.0000
    330 C          42.4821  234.4677   39.5499 C.3      47      M_A    0.0000
    331 C          42.2730  233.5054   38.3845 C.3      47      M_A    0.0000
    332 O          43.1655  233.8142   37.3140 O.3      47      M_A    0.0000
    333 H          43.3779  235.0801   39.4010 H        47      M_A    0.0000
    334 H          42.6267  233.8867   40.4679 H        47      M_A    0.0000
    335 H          41.2511  233.5802   37.9921 H        47      M_A    0.0000
    336 H          42.3985  232.4668   38.7227 H        47      M_A    0.0000
    337 C          44.2297  234.6361   37.7487 C.3      48      M_A    0.0000
    338 C          45.5064  234.3930   36.9493 C.3      48      M_A    0.0000
    339 O          45.5648  235.2664   35.8217 O.3      48      M_A    0.0000
    340 H          43.9191  235.6846   37.6883 H        48      M_A    0.0000
    341 H          44.4227  234.4079   38.8032 H        48      M_A    0.0000
    342 H          45.5422  233.3641   36.5700 H        48      M_A    0.0000
    343 H          46.3877  234.5147   37.5954 H        48      M_A    0.0000
    344 C          46.8976  235.4884   35.4079 C.3      49      M_A    0.0000
    345 C          47.2008  234.8246   34.0679 C.3      49      M_A    0.0000
    346 O          47.3649  235.8093   33.0474 O.3      49      M_A    0.0000
    347 H          47.0838  236.5669   35.3659 H        49      M_A    0.0000
    348 H          47.5620  235.0668   36.1708 H        49      M_A    0.0000
    349 H          46.3783  234.1669   33.7605 H        49      M_A    0.0000
    350 H          48.0915  234.1856   34.1538 H        49      M_A    0.0000
    351 C          48.0000  235.2703   31.9059 C.3      50      M_A    0.0000
    352 C          48.2626  236.3307   30.8406 C.3      50      M_A    0.0000
    353 O          49.6471  236.3598   30.4940 O.3      50      M_A    0.0000
    354 H          48.9298  234.7794   32.2127 H        50      M_A    0.0000
    355 H          47.3420  234.5010   31.4858 H        50      M_A    0.0000
    356 H          47.9945  237.3297   31.2066 H        50      M_A    0.0000
    357 H          47.6333  236.1460   29.9581 H        50      M_A    0.0000
    358 C          49.8299  236.6046   29.1143 C.3      51      M_A    0.0000
    359 C          50.8376  237.7213   28.8580 C.3      51      M_A    0.0000
    360 O          52.0174  237.2000   28.2462 O.3      51      M_A    0.0000
    361 H          50.1370  235.6747   28.6240 H        51      M_A    0.0000
    362 H          48.8614  236.8973   28.6929 H        51      M_A    0.0000
    363 H          51.1392  238.2012   29.7973 H        51      M_A    0.0000
    364 H          50.3821  238.5093   28.2411 H        51      M_A    0.0000
    365 C          52.8294  238.2326   27.7255 C.3      52      M_A    0.0000
    366 C          54.1230  238.4003   28.5172 C.3      52      M_A    0.0000
    367 O          55.2207  238.6415   27.6371 O.3      52      M_A    0.0000
    368 H          53.0360  238.0268   26.6698 H        52      M_A    0.0000
    369 H          52.2593  239.1673   27.7756 H        52      M_A    0.0000
    370 H          54.3537  237.4929   29.0891 H        52      M_A    0.0000
    371 H          54.0151  239.2100   29.2532 H        52      M_A    0.0000
    372 C          55.1689  239.9436   27.0904 C.3      53      M_A    0.0000
    373 C          56.4911  240.3485   26.4454 C.3      53      M_A    0.0000
    374 O          56.2693  240.8741   25.1368 O.3      53      M_A    0.0000
    375 H          54.3453  239.9964   26.3704 H        53      M_A    0.0000
    376 H          54.9429  240.6420   27.9043 H        53      M_A    0.0000
    377 H          57.1590  239.4840   26.3432 H        53      M_A    0.0000
    378 H          57.0185  241.0725   27.0831 H        53      M_A    0.0000
    379 C          57.4084  240.7155   24.3158 C.3      54      M_A    0.0000
    380 C          58.0728  242.0502   23.9914 C.3      54      M_A    0.0000
    381 O          59.4266  242.0585   24.4440 O.3      54      M_A    0.0000
    382 H          58.1106  240.0334   24.8068 H        54      M_A    0.0000
    383 H          57.0865  240.2431   23.3806 H        54      M_A    0.0000
    384 H          57.5544  242.8784   24.4907 H        54      M_A    0.0000
    385 H          58.0106  242.2528   22.9125 H        54      M_A    0.0000
    386 C          59.9403  243.3730   24.5147 C.3      55      M_A    0.0000
    387 C          61.4254  243.3910   24.8646 C.3      55      M_A    0.0000
    388 O          62.2072  243.7058   23.7125 O.3      55      M_A    0.0000
    389 H          59.7522  243.8818   23.5633 H        55      M_A    0.0000
    390 H          59.3862  243.9100   25.2931 H        55      M_A    0.0000
    391 H          61.7552  242.4094   25.2272 H        55      M_A    0.0000
    392 H          61.6141  244.1015   25.6823 H        55      M_A    0.0000
    393 C          63.5908  243.6387   23.9921 C.3      56      M_A    0.0000
    394 C          64.4154  244.4689   23.0129 C.3      56      M_A    0.0000
    395 O          65.4957  245.1126   23.6886 O.3      56      M_A    0.0000
    396 H          63.7626  243.9598   25.0250 H        56      M_A    0.0000
    397 H          63.8996  242.5899   23.9154 H        56      M_A    0.0000
    398 H          63.8031  245.2533   22.5506 H        56      M_A    0.0000
    399 H          64.7785  243.8359   22.1906 H        56      M_A    0.0000
    400 C          66.6799  244.3446   23.6195 C.3      57      M_A    0.0000
    401 C          67.9146  245.2124   23.3943 C.3      57      M_A    0.0000
    402 O          68.9418  244.8723   24.3255 O.3      57      M_A    0.0000
    403 H          66.7752  243.7515   24.5352 H        57      M_A    0.0000
    404 H          66.5799  243.6459   22.7809 H        57      M_A    0.0000
    405 H          67.6796  246.2744   23.5379 H        57      M_A    0.0000
    406 H          68.2656  245.1113   22.3573 H        57      M_A    0.0000
    407 C          70.1955  245.3849   23.9226 C.3      58      M_A    0.0000
    408 C          71.3057  245.0253   24.9057 C.3      58      M_A    0.0000
    409 O          72.4152  244.4473   24.2181 O.3      58      M_A    0.0000
    410 H          70.4247  245.0186   22.9163 H        58      M_A    0.0000
    411 H          70.1112  246.4763   23.8668 H        58      M_A    0.0000
    412 H          70.9558  244.2901   25.6411 H        58      M_A    0.0000
    413 H          71.6087  245.9141   25.4777 H        58      M_A    0.0000
    414 C          73.5167  244.2561   25.0824 C.3      59      M_A    0.0000
    415 C          74.8405  244.2150   24.3248 C.3      59      M_A    0.0000
    416 O          75.8814  244.8047   25.1038 O.3      59      M_A    0.0000
    417 H          73.5187  245.0477   25.8392 H        59      M_A    0.0000
    418 H          73.3757  243.3013   25.6018 H        59      M_A    0.0000
    419 H          74.7732  244.7788   23.3860 H        59      M_A    0.0000
    420 H          75.0866  243.1802   24.0465 H        59      M_A    0.0000
    421 C          76.3970  243.8932   26.0526 C.3      60      M_A    0.0000
    422 C          77.1469  242.7400   25.3923 C.3      60      M_A    0.0000
    423 O          78.5082  243.0987   25.1555 O.3      60      M_A    0.0000
    424 H          77.0415  244.4338   26.7540 H        60      M_A    0.0000
    425 H          75.5536  243.4873   26.6229 H        60      M_A    0.0000
    426 H          76.7008  242.4855   24.4228 H        60      M_A    0.0000
    427 H          77.0740  241.8352   26.0128 H        60      M_A    0.0000
    428 C          79.3690  241.9877   25.3027 C.3      61      M_A    0.0000
    429 C          80.1618  241.7031   24.0304 C.3      61      M_A    0.0000
    430 O          81.5628  241.8241   24.2762 O.3      61      M_A    0.0000
    431 H          80.0362  242.1628   26.1534 H        61      M_A    0.0000
    432 H          78.7526  241.1129   25.5395 H        61      M_A    0.0000
    433 H          79.9041  242.4181   23.2391 H        61      M_A    0.0000
    434 H          79.9088  240.7067   23.6405 H        61      M_A    0.0000
    435 C          82.3222  241.2256   23.2457 C.3      62      M_A    0.0000
    436 C          83.7889  241.0631   23.6336 C.3      62      M_A    0.0000
    437 O          84.3042  239.8280   23.1368 O.3      62      M_A    0.0000
    438 H          81.8732  240.2613   22.9848 H        62      M_A    0.0000
    439 H          82.2586  241.8708   22.3620 H        62      M_A    0.0000
    440 H          83.9078  241.0536   24.7243 H        62      M_A    0.0000
    441 H          84.3755  241.9177   23.2666 H        62      M_A    0.0000
    442 C          85.7094  239.8734   22.9953 C.3      63      M_A    0.0000
    443 C          86.3399  238.4864   23.0778 C.3      63      M_A    0.0000
    444 O          86.3160  237.8489   21.8007 O.3      63      M_A    0.0000
    445 H          85.9576  240.3647   22.0484 H        63      M_A    0.0000
    446 H          86.1099  240.4936   23.8054 H        63      M_A    0.0000
    447 H          85.7873  237.8448   23.7756 H        63      M_A    0.0000
    448 H          87.3647  238.5580   23.4699 H        63      M_A    0.0000
    449 C          86.4670  236.4489   21.9186 C.3      64      M_A    0.0000
    450 C          85.2164  235.7820   22.4837 C.3      64      M_A    0.0000
    451 O          84.7791  234.7291   21.6247 O.3      64      M_A    0.0000
    452 H          86.7280  236.0339   20.9392 H        64      M_A    0.0000
    453 H          87.3078  236.2564   22.5948 H        64      M_A    0.0000
    454 H          84.3920  236.5011   22.5679 H        64      M_A    0.0000
    455 H          85.4098  235.4135   23.5015 H        64      M_A    0.0000
    456 C          84.1418  235.2351   20.4694 C.3      65      M_A    0.0000
    457 C          83.5573  234.1236   19.6027 C.3      65      M_A    0.0000
    458 O          82.1319  234.1984   19.5871 O.3      65      M_A    0.0000
    459 H          83.3681  235.9489   20.7717 H        65      M_A    0.0000
    460 H          84.8893  235.7841   19.8854 H        65      M_A    0.0000
    461 H          83.8302  233.1358   19.9945 H        65      M_A    0.0000
    462 H          83.9718  234.1777   18.5857 H        65      M_A    0.0000
    463 C          81.5945  234.1019   20.8905 C.3      66      M_A    0.0000
    464 C          82.1468  235.1782   21.8203 C.3      66      M_A    0.0000
    465 O          81.2383  235.4272   22.8930 O.3      66      M_A    0.0000
    466 H          80.5021  234.1531   20.8313 H        66      M_A    0.0000
    467 H          81.8589  233.1168   21.2919 H        66      M_A    0.0000
    468 H          82.2893  236.1248   21.2842 H        66      M_A    0.0000
    469 H          83.1375  234.8837   22.1955 H        66      M_A    0.0000
    470 H          81.4533  234.8826   23.6788 H        66      M_A    0.0000
    471 H          76.0799  142.8806   79.1138 H         0      M_A    0.0000
@<TRIPOS>BOND
     1     1     2      1
     2     1     4      1
     3     1     5      1
     4     1   471      1
     5     2     3      1
     6     2     6      1
     7     2     7      1
     8     3     8      1
     9     8     9      1
    10     8    11      1
    11     8    12      1
    12     9    10      1
    13     9    13      1
    14     9    14      1
    15    10    15      1
    16    15    16      1
    17    15    18      1
    18    15    19      1
    19    16    17      1
    20    16    20      1
    21    16    21      1
    22    17    22      1
    23    22    23      1
    24    22    25      1
    25    22    26      1
    26    23    24      1
    27    23    27      1
    28    23    28      1
    29    24    29      1
    30    29    30      1
    31    29    32      1
    32    29    33      1
    33    30    31      1
    34    30    34      1
    35    30    35      1
    36    31    36      1
    37    36    37      1
    38    36    39      1
    39    36    40      1
    40    37    38      1
    41    37    41      1
    42    37    42      1
    43    38    43      1
    44    43    44      1
    45    43    46      1
    46    43    47      1
    47    44    45      1
    48    44    48      1
    49    44    49      1
    50    45    50      1
    51    50    51      1
    52    50    53      1
    53    50    54      1
    54    51    52      1
    55    51    55      1
    56    51    56      1
    57    52    57      1
    58    57    58      1
    59    57    60      1
    60    57    61      1
    61    58    59      1
    62    58    62      1
    63    58    63      1
    64    59    64      1
    65    64    65      1
    66    64    67      1
    67    64    68      1
    68    65    66      1
    69    65    69      1
    70    65    70      1
    71    66    71      1
    72    71    72      1
    73    71    74      1
    74    71    75      1
    75    72    73      1
    76    72    76      1
    77    72    77      1
    78    73    78      1
    79    78    79      1
    80    78    81      1
    81    78    82      1
    82    79    80      1
    83    79    83      1
    84    79    84      1
    85    80    85      1
    86    85    86      1
    87    85    88      1
    88    85    89      1
    89    86    87      1
    90    86    90      1
    91    86    91      1
    92    87    92      1
    93    92    93      1
    94    92    95      1
    95    92    96      1
    96    93    94      1
    97    93    97      1
    98    93    98      1
    99    94    99      1
   100    99   100      1
   101    99   102      1
   102    99   103      1
   103   100   101      1
   104   100   104      1
   105   100   105      1
   106   101   106      1
   107   106   107      1
   108   106   109      1
   109   106   110      1
   110   107   108      1
   111   107   111      1
   112   107   112      1
   113   108   113      1
   114   113   114      1
   115   113   116      1
   116   113   117      1
   117   114   115      1
   118   114   118      1
   119   114   119      1
   120   115   120      1
   121   120   121      1
   122   120   123      1
   123   120   124      1
   124   121   122      1
   125   121   125      1
   126   121   126      1
   127   122   127      1
   128   127   128      1
   129   127   130      1
   130   127   131      1
   131   128   129      1
   132   128   132      1
   133   128   133      1
   134   129   134      1
   135   134   135      1
   136   134   137      1
   137   134   138      1
   138   135   136      1
   139   135   139      1
   140   135   140      1
   141   136   141      1
   142   141   142      1
   143   141   144      1
   144   141   145      1
   145   142   143      1
   146   142   146      1
   147   142   147      1
   148   143   148      1
   149   148   149      1
   150   148   151      1
   151   148   152      1
   152   149   150      1
   153   149   153      1
   154   149   154      1
   155   150   155      1
   156   155   156      1
   157   155   158      1
   158   155   159      1
   159   156   157      1
   160   156   160      1
   161   156   161      1
   162   157   162      1
   163   162   163      1
   164   162   165      1
   165   162   166      1
   166   163   164      1
   167   163   167      1
   168   163   168      1
   169   164   169      1
   170   169   170      1
   171   169   172      1
   172   169   173      1
   173   170   171      1
   174   170   174      1
   175   170   175      1
   176   171   176      1
   177   176   177      1
   178   176   179      1
   179   176   180      1
   180   177   178      1
   181   177   181      1
   182   177   182      1
   183   178   183      1
   184   183   184      1
   185   183   186      1
   186   183   187      1
   187   184   185      1
   188   184   188      1
   189   184   189      1
   190   185   190      1
   191   190   191      1
   192   190   193      1
   193   190   194      1
   194   191   192      1
   195   191   195      1
   196   191   196      1
   197   192   197      1
   198   197   198      1
   199   197   200      1
   200   197   201      1
   201   198   199      1
   202   198   202      1
   203   198   203      1
   204   199   204      1
   205   204   205      1
   206   204   207      1
   207   204   208      1
   208   205   206      1
   209   205   209      1
   210   205   210      1
   211   206   211      1
   212   211   212      1
   213   211   214      1
   214   211   215      1
   215   212   213      1
   216   212   216      1
   217   212   217      1
   218   213   218      1
   219   218   219      1
   220   218   221      1
   221   218   222      1
   222   219   220      1
   223   219   223      1
   224   219   224      1
   225   220   225      1
   226   225   226      1
   227   225   228      1
   228   225   229      1
   229   226   227      1
   230   226   230      1
   231   226   231      1
   232   227   232      1
   233   232   233      1
   234   232   235      1
   235   232   236      1
   236   233   234      1
   237   233   237      1
   238   233   238      1
   239   234   239      1
   240   239   240      1
   241   239   242      1
   242   239   243      1
   243   240   241      1
   244   240   244      1
   245   240   245      1
   246   241   246      1
   247   246   247      1
   248   246   249      1
   249   246   250      1
   250   247   248      1
   251   247   251      1
   252   247   252      1
   253   248   253      1
   254   253   254      1
   255   253   256      1
   256   253   257      1
   257   254   255      1
   258   254   258      1
   259   254   259      1
   260   255   260      1
   261   260   261      1
   262   260   263      1
   263   260   264      1
   264   261   262      1
   265   261   265      1
   266   261   266      1
   267   262   267      1
   268   267   268      1
   269   267   270      1
   270   267   271      1
   271   268   269      1
   272   268   272      1
   273   268   273      1
   274   269   274      1
   275   274   275      1
   276   274   277      1
   277   274   278      1
   278   275   276      1
   279   275   279      1
   280   275   280      1
   281   276   281      1
   282   281   282      1
   283   281   284      1
   284   281   285      1
   285   282   283      1
   286   282   286      1
   287   282   287      1
   288   283   288      1
   289   288   289      1
   290   288   291      1
   291   288   292      1
   292   289   290      1
   293   289   293      1
   294   289   294      1
   295   290   295      1
   296   295   296      1
   297   295   298      1
   298   295   299      1
   299   296   297      1
   300   296   300      1
   301   296   301      1
   302   297   302      1
   303   302   303      1
   304   302   305      1
   305   302   306      1
   306   303   304      1
   307   303   307      1
   308   303   308      1
   309   304   309      1
   310   309   310      1
   311   309   312      1
   312   309   313      1
   313   310   311      1
   314   310   314      1
   315   310   315      1
   316   311   316      1
   317   316   317      1
   318   316   319      1
   319   316   320      1
   320   317   318      1
   321   317   321      1
   322   317   322      1
   323   318   323      1
   324   323   324      1
   325   323   326      1
   326   323   327      1
   327   324   325      1
   328   324   328      1
   329   324   329      1
   330   325   330      1
   331   330   331      1
   332   330   333      1
   333   330   334      1
   334   331   332      1
   335   331   335      1
   336   331   336      1
   337   332   337      1
   338   337   338      1
   339   337   340      1
   340   337   341      1
   341   338   339      1
   342   338   342      1
   343   338   343      1
   344   339   344      1
   345   344   345      1
   346   344   347      1
   347   344   348      1
   348   345   346      1
   349   345   349      1
   350   345   350      1
   351   346   351      1
   352   351   352      1
   353   351   354      1
   354   351   355      1
   355   352   353      1
   356   352   356      1
   357   352   357      1
   358   353   358      1
   359   358   359      1
   360   358   361      1
   361   358   362      1
   362   359   360      1
   363   359   363      1
   364   359   364      1
   365   360   365      1
   366   365   366      1
   367   365   368      1
   368   365   369      1
   369   366   367      1
   370   366   370      1
   371   366   371      1
   372   367   372      1
   373   372   373      1
   374   372   375      1
   375   372   376      1
   376   373   374      1
   377   373   377      1
   378   373   378      1
   379   374   379      1
   380   379   380      1
   381   379   382      1
   382   379   383      1
   383   380   381      1
   384   380   384      1
   385   380   385      1
   386   381   386      1
   387   386   387      1
   388   386   389      1
   389   386   390      1
   390   387   388      1
   391   387   391      1
   392   387   392      1
   393   388   393      1
   394   393   394      1
   395   393   396      1
   396   393   397      1
   397   394   395      1
   398   394   398      1
   399   394   399      1
   400   395   400      1
   401   400   401      1
   402   400   403      1
   403   400   404      1
   404   401   402      1
   405   401   405      1
   406   401   406      1
   407   402   407      1
   408   407   408      1
   409   407   410      1
   410   407   411      1
   411   408   409      1
   412   408   412      1
   413   408   413      1
   414   409   414      1
   415   414   415      1
   416   414   417      1
   417   414   418      1
   418   415   416      1
   419   415   419      1
   420   415   420      1
   421   416   421      1
   422   421   422      1
   423   421   424      1
   424   421   425      1
   425   422   423      1
   426   422   426      1
   427   422   427      1
   428   423   428      1
   429   428   429      1
   430   428   431      1
   431   428   432      1
   432   429   430      1
   433   429   433      1
   434   429   434      1
   435   430   435      1
   436   435   436      1
   437   435   438      1
   438   435   439      1
   439   436   437      1
   440   436   440      1
   441   436   441      1
   442   437   442      1
   443   442   443      1
   444   442   445      1
   445   442   446      1
   446   443   444      1
   447   443   447      1
   448   443   448      1
   449   444   449      1
   450   449   450      1
   451   449   452      1
   452   449   453      1
   453   450   451      1
   454   450   454      1
   455   450   455      1
   456   451   456      1
   457   456   457      1
   458   456   459      1
   459   456   460      1
   460   457   458      1
   461   457   461      1
   462   457   462      1
   463   458   463      1
   464   463   464      1
   465   463   466      1
   466   463   467      1
   467   464   465      1
   468   464   468      1
   469   464   469      1
   470   465   470      1
