###
### Created by PolyChef-cpp17 on Mon May 12 10:39:12 2025
###

@<TRIPOS>MOLECULE
NO_INFO
205 204 1 0 0
SMALL
USER_CHARGES


@<TRIPOS>ATOM
      1 C          51.8484   59.6459   67.7361 C.3       0      M_A    0.0000
      2 C          51.7212   58.3394   66.9584 C.3       0      M_A    0.0000
      3 O          50.8037   57.4585   67.6065 O.3       0      M_A    0.0000
      4 H          50.9333   60.2325   67.5959 H         0      M_A    0.0000
      5 H          51.9602   59.4579   68.8092 H         0      M_A    0.0000
      6 H          51.4158   58.5429   65.9219 H         0      M_A    0.0000
      7 H          52.6870   57.8221   66.8991 H         0      M_A    0.0000
      8 C          49.8599   58.1719   68.3792 C.3       1      M_A    0.0000
      9 C          48.4318   57.7020   68.1187 C.3       1      M_A    0.0000
     10 O          47.5938   58.0055   69.2338 O.3       1      M_A    0.0000
     11 H          49.9385   59.2321   68.1127 H         1      M_A    0.0000
     12 H          50.1203   58.0765   69.4388 H         1      M_A    0.0000
     13 H          48.0461   58.1546   67.1938 H         1      M_A    0.0000
     14 H          48.3972   56.6158   67.9678 H         1      M_A    0.0000
     15 C          47.9966   59.1993   69.8737 C.3       2      M_A    0.0000
     16 C          47.2443   60.4166   69.3444 C.3       2      M_A    0.0000
     17 O          46.3106   60.8890   70.3155 O.3       2      M_A    0.0000
     18 H          49.0681   59.3363   69.6878 H         2      M_A    0.0000
     19 H          47.8595   59.0891   70.9547 H         2      M_A    0.0000
     20 H          47.9539   61.2051   69.0553 H         2      M_A    0.0000
     21 H          46.6777   60.1649   68.4392 H         2      M_A    0.0000
     22 C          45.3076   61.6885   69.7225 C.3       3      M_A    0.0000
     23 C          45.3923   63.1438   70.1731 C.3       3      M_A    0.0000
     24 O          45.3448   64.0200   69.0470 O.3       3      M_A    0.0000
     25 H          44.3337   61.2819   70.0183 H         3      M_A    0.0000
     26 H          45.3833   61.6070   68.6329 H         3      M_A    0.0000
     27 H          44.5872   63.3673   70.8878 H         3      M_A    0.0000
     28 H          46.3348   63.3373   70.7003 H         3      M_A    0.0000
     29 C          44.0146   64.3566   68.7093 C.3       4      M_A    0.0000
     30 C          43.8976   65.7882   68.1947 C.3       4      M_A    0.0000
     31 O          43.5799   65.7954   66.8030 O.3       4      M_A    0.0000
     32 H          43.4013   64.2530   69.6118 H         4      M_A    0.0000
     33 H          43.6409   63.6393   67.9709 H         4      M_A    0.0000
     34 H          43.1481   66.3414   68.7788 H         4      M_A    0.0000
     35 H          44.8445   66.3284   68.3183 H         4      M_A    0.0000
     36 C          44.0000   66.9935   66.1827 C.3       5      M_A    0.0000
     37 C          42.8210   67.8573   65.7446 C.3       5      M_A    0.0000
     38 O          42.9394   69.1750   66.2809 O.3       5      M_A    0.0000
     39 H          44.5913   66.7264   65.2994 H         5      M_A    0.0000
     40 H          44.6569   67.5396   66.8682 H         5      M_A    0.0000
     41 H          42.7518   67.8768   64.6474 H         5      M_A    0.0000
     42 H          41.8728   67.4396   66.1057 H         5      M_A    0.0000
     43 C          44.0701   69.8449   65.7619 C.3       6      M_A    0.0000
     44 C          43.7446   71.2722   65.3318 C.3       6      M_A    0.0000
     45 O          43.8479   72.1650   66.4409 O.3       6      M_A    0.0000
     46 H          44.4234   69.2836   64.8893 H         6      M_A    0.0000
     47 H          44.8691   69.8303   66.5108 H         6      M_A    0.0000
     48 H          44.4043   71.5801   64.5078 H         6      M_A    0.0000
     49 H          42.7191   71.3424   64.9481 H         6      M_A    0.0000
     50 C          42.7181   72.0745   67.2848 C.3       7      M_A    0.0000
     51 C          41.9954   73.4113   67.4221 C.3       7      M_A    0.0000
     52 O          40.7101   73.3512   66.8038 O.3       7      M_A    0.0000
     53 H          43.0619   71.7541   68.2750 H         7      M_A    0.0000
     54 H          42.0463   71.2996   66.9006 H         7      M_A    0.0000
     55 H          41.9166   73.6931   68.4819 H         7      M_A    0.0000
     56 H          42.5589   74.2145   66.9309 H         7      M_A    0.0000
     57 C          40.0535   74.6016   66.8529 C.3       8      M_A    0.0000
     58 C          38.6271   74.5224   66.3172 C.3       8      M_A    0.0000
     59 O          37.6910   74.4611   67.3933 O.3       8      M_A    0.0000
     60 H          40.6247   75.3064   66.2379 H         8      M_A    0.0000
     61 H          40.0689   74.9730   67.8831 H         8      M_A    0.0000
     62 H          38.4217   75.3772   65.6568 H         8      M_A    0.0000
     63 H          38.4861   73.6212   65.7075 H         8      M_A    0.0000
     64 C          36.4731   73.8711   66.9864 C.3       9      M_A    0.0000
     65 C          35.3234   74.8742   66.9793 C.3       9      M_A    0.0000
     66 O          34.6033   74.8014   65.7488 O.3       9      M_A    0.0000
     67 H          36.2367   73.0659   67.6913 H         9      M_A    0.0000
     68 H          36.6082   73.4176   65.9987 H         9      M_A    0.0000
     69 H          34.6623   74.6998   67.8404 H         9      M_A    0.0000
     70 H          35.6973   75.9007   67.0809 H         9      M_A    0.0000
     71 C          34.2642   73.4681   65.4261 C.3      10      M_A    0.0000
     72 C          33.6472   73.3532   64.0354 C.3      10      M_A    0.0000
     73 O          34.4002   72.4492   63.2269 O.3      10      M_A    0.0000
     74 H          33.5368   73.1167   66.1669 H        10      M_A    0.0000
     75 H          35.1573   72.8406   65.5155 H        10      M_A    0.0000
     76 H          32.5957   73.0408   64.1113 H        10      M_A    0.0000
     77 H          33.6438   74.3249   63.5258 H        10      M_A    0.0000
     78 C          33.9594   72.4658   61.8844 C.3      11      M_A    0.0000
     79 C          34.6420   71.3918   61.0427 C.3      11      M_A    0.0000
     80 O          33.6714   70.6068   60.3501 O.3      11      M_A    0.0000
     81 H          34.1967   73.4498   61.4640 H        11      M_A    0.0000
     82 H          32.8704   72.3510   61.8645 H        11      M_A    0.0000
     83 H          35.3552   71.8531   60.3445 H        11      M_A    0.0000
     84 H          35.2258   70.7103   61.6740 H        11      M_A    0.0000
     85 C          34.1127   70.2662   59.0516 C.3      12      M_A    0.0000
     86 C          33.2296   69.2027   58.4056 C.3      12      M_A    0.0000
     87 O          32.6682   69.6909   57.1872 O.3      12      M_A    0.0000
     88 H          35.1339   69.8767   59.1341 H        12      M_A    0.0000
     89 H          34.1525   71.1728   58.4384 H        12      M_A    0.0000
     90 H          33.8054   68.2809   58.2394 H        12      M_A    0.0000
     91 H          32.3963   68.9306   59.0654 H        12      M_A    0.0000
     92 C          32.7230   71.1014   57.1212 C.3      13      M_A    0.0000
     93 C          32.0939   71.6411   55.8401 C.3      13      M_A    0.0000
     94 O          30.8083   72.1996   56.1107 O.3      13      M_A    0.0000
     95 H          33.7773   71.3995   57.1512 H        13      M_A    0.0000
     96 H          32.2351   71.5199   58.0079 H        13      M_A    0.0000
     97 H          32.7603   72.3797   55.3720 H        13      M_A    0.0000
     98 H          31.9555   70.8402   55.1031 H        13      M_A    0.0000
     99 C          30.3648   73.0164   55.0463 C.3      14      M_A    0.0000
    100 C          28.8497   73.1968   55.0537 C.3      14      M_A    0.0000
    101 O          28.5090   74.5747   54.9008 O.3      14      M_A    0.0000
    102 H          30.6600   72.5353   54.1067 H        14      M_A    0.0000
    103 H          30.8782   73.9824   55.0993 H        14      M_A    0.0000
    104 H          28.3904   72.5816   54.2666 H        14      M_A    0.0000
    105 H          28.4183   72.8551   56.0029 H        14      M_A    0.0000
    106 C          28.8780   75.0604   53.6261 C.3      15      M_A    0.0000
    107 C          28.0426   76.2666   53.2075 C.3      15      M_A    0.0000
    108 O          28.6218   77.4732   53.7041 O.3      15      M_A    0.0000
    109 H          28.7240   74.2534   52.9005 H        15      M_A    0.0000
    110 H          29.9462   75.3019   53.6312 H        15      M_A    0.0000
    111 H          27.9377   76.2942   52.1133 H        15      M_A    0.0000
    112 H          27.0253   76.1994   53.6129 H        15      M_A    0.0000
    113 C          28.1818   78.5981   52.9708 C.3      16      M_A    0.0000
    114 C          27.2382   79.4799   53.7833 C.3      16      M_A    0.0000
    115 O          27.9298   80.6231   54.2859 O.3      16      M_A    0.0000
    116 H          27.6515   78.2353   52.0829 H        16      M_A    0.0000
    117 H          29.0542   79.1643   52.6273 H        16      M_A    0.0000
    118 H          26.3723   79.7730   53.1723 H        16      M_A    0.0000
    119 H          26.8359   78.9339   54.6458 H        16      M_A    0.0000
    120 C          27.2801   81.1643   55.4180 C.3      17      M_A    0.0000
    121 C          28.1392   82.2050   56.1302 C.3      17      M_A    0.0000
    122 O          27.4939   83.4783   56.1202 O.3      17      M_A    0.0000
    123 H          27.0712   80.3420   56.1119 H        17      M_A    0.0000
    124 H          26.3191   81.5893   55.1093 H        17      M_A    0.0000
    125 H          28.3604   81.8768   57.1560 H        17      M_A    0.0000
    126 H          29.1080   82.3237   55.6290 H        17      M_A    0.0000
    127 C          28.3509   84.4962   56.5959 C.3      18      M_A    0.0000
    128 C          29.4845   84.7952   55.6194 C.3      18      M_A    0.0000
    129 O          30.0525   86.0768   55.8891 O.3      18      M_A    0.0000
    130 H          28.7810   84.1580   57.5456 H        18      M_A    0.0000
    131 H          27.7591   85.3945   56.8016 H        18      M_A    0.0000
    132 H          30.2452   84.0027   55.6669 H        18      M_A    0.0000
    133 H          29.1184   84.8092   54.5852 H        18      M_A    0.0000
    134 C          29.4731   86.6687   57.0341 C.3      19      M_A    0.0000
    135 C          30.5069   87.3928   57.8915 C.3      19      M_A    0.0000
    136 O          30.4463   88.8011   57.6659 O.3      19      M_A    0.0000
    137 H          29.0141   85.8714   57.6299 H        19      M_A    0.0000
    138 H          28.6743   87.3487   56.7194 H        19      M_A    0.0000
    139 H          30.3556   87.1510   58.9534 H        19      M_A    0.0000
    140 H          31.5234   87.0636   57.6424 H        19      M_A    0.0000
    141 C          30.6815   89.5261   58.8558 C.3      20      M_A    0.0000
    142 C          32.1595   89.8540   59.0456 C.3      20      M_A    0.0000
    143 O          32.5064   91.0365   58.3250 O.3      20      M_A    0.0000
    144 H          30.3439   88.9108   59.6976 H        20      M_A    0.0000
    145 H          30.0727   90.4365   58.8458 H        20      M_A    0.0000
    146 H          32.3914   89.9554   60.1156 H        20      M_A    0.0000
    147 H          32.7935   89.0417   58.6686 H        20      M_A    0.0000
    148 C          33.7664   91.5353   58.7255 C.3      21      M_A    0.0000
    149 C          34.8504   90.4626   58.6771 C.3      21      M_A    0.0000
    150 O          35.4512   90.4161   57.3830 O.3      21      M_A    0.0000
    151 H          33.6731   91.8989   59.7552 H        21      M_A    0.0000
    152 H          34.0289   92.3912   58.0945 H        21      M_A    0.0000
    153 H          35.6005   90.6455   59.4599 H        21      M_A    0.0000
    154 H          34.4295   89.4698   58.8797 H        21      M_A    0.0000
    155 C          36.4967   89.4668   57.3319 C.3      22      M_A    0.0000
    156 C          36.6095   88.8103   55.9592 C.3      22      M_A    0.0000
    157 O          37.9394   88.9312   55.4544 O.3      22      M_A    0.0000
    158 H          36.2859   88.6928   58.0788 H        22      M_A    0.0000
    159 H          37.4358   89.9538   57.6156 H        22      M_A    0.0000
    160 H          36.2972   87.7576   56.0151 H        22      M_A    0.0000
    161 H          35.9390   89.2927   55.2370 H        22      M_A    0.0000
    162 C          38.0121   88.5569   54.0937 C.3      23      M_A    0.0000
    163 C          39.1040   89.3171   53.3467 C.3      23      M_A    0.0000
    164 O          39.6775   88.4974   52.3284 O.3      23      M_A    0.0000
    165 H          37.0442   88.7803   53.6305 H        23      M_A    0.0000
    166 H          38.1686   87.4749   54.0286 H        23      M_A    0.0000
    167 H          38.6987   90.2497   52.9283 H        23      M_A    0.0000
    168 H          39.9134   89.6108   54.0267 H        23      M_A    0.0000
    169 C          39.5766   89.1055   51.0569 C.3      24      M_A    0.0000
    170 C          40.2855   90.4558   51.0084 C.3      24      M_A    0.0000
    171 O          40.3181   90.9562   49.6718 O.3      24      M_A    0.0000
    172 H          38.5130   89.2554   50.8385 H        24      M_A    0.0000
    173 H          39.9768   88.4216   50.3009 H        24      M_A    0.0000
    174 H          39.7955   91.1664   51.6895 H        24      M_A    0.0000
    175 H          41.3239   90.3666   51.3512 H        24      M_A    0.0000
    176 C          39.1005   91.5838   49.3246 C.3      25      M_A    0.0000
    177 C          39.3026   93.0371   48.9062 C.3      25      M_A    0.0000
    178 O          39.9670   93.1069   47.6446 O.3      25      M_A    0.0000
    179 H          38.4446   91.5555   50.2023 H        25      M_A    0.0000
    180 H          38.6153   91.0074   48.5298 H        25      M_A    0.0000
    181 H          38.3369   93.5621   48.8791 H        25      M_A    0.0000
    182 H          39.9240   93.5727   49.6347 H        25      M_A    0.0000
    183 C          40.5076   94.3922   47.4151 C.3      26      M_A    0.0000
    184 C          41.8086   94.3343   46.6201 C.3      26      M_A    0.0000
    185 O          41.5394   94.3443   45.2182 O.3      26      M_A    0.0000
    186 H          40.7076   94.8525   48.3895 H        26      M_A    0.0000
    187 H          39.7597   95.0086   46.9049 H        26      M_A    0.0000
    188 H          42.4661   95.1676   46.9070 H        26      M_A    0.0000
    189 H          42.3634   93.4139   46.8415 H        26      M_A    0.0000
    190 C          41.8720   93.1085   44.6189 C.3      27      M_A    0.0000
    191 C          41.1172   91.9425   45.2503 C.3      27      M_A    0.0000
    192 O          41.1220   90.8123   44.3784 O.3      27      M_A    0.0000
    193 H          42.9480   92.9481   44.7523 H        27      M_A    0.0000
    194 H          41.6771   93.1693   43.5429 H        27      M_A    0.0000
    195 H          41.5523   91.6943   46.2291 H        27      M_A    0.0000
    196 H          40.0693   92.2085   45.4375 H        27      M_A    0.0000
    197 C          42.4372   90.3675   44.1154 C.3      28      M_A    0.0000
    198 C          43.0951   91.1561   42.9869 C.3      28      M_A    0.0000
    199 O          44.1460   91.9769   43.4964 O.3      28      M_A    0.0000
    200 H          42.3844   89.3116   43.8262 H        28      M_A    0.0000
    201 H          43.0263   90.4295   45.0366 H        28      M_A    0.0000
    202 H          43.4637   90.4709   42.2099 H        28      M_A    0.0000
    203 H          42.3704   91.8174   42.4957 H        28      M_A    0.0000
    204 H          45.0122   91.5209   43.4494 H        28      M_A    0.0000
    205 H          52.6888   60.2483   67.3912 H         0      M_A    0.0000
@<TRIPOS>BOND
     1     1     2      1
     2     1     4      1
     3     1     5      1
     4     1   205      1
     5     2     3      1
     6     2     6      1
     7     2     7      1
     8     3     8      1
     9     8     9      1
    10     8    11      1
    11     8    12      1
    12     9    10      1
    13     9    13      1
    14     9    14      1
    15    10    15      1
    16    15    16      1
    17    15    18      1
    18    15    19      1
    19    16    17      1
    20    16    20      1
    21    16    21      1
    22    17    22      1
    23    22    23      1
    24    22    25      1
    25    22    26      1
    26    23    24      1
    27    23    27      1
    28    23    28      1
    29    24    29      1
    30    29    30      1
    31    29    32      1
    32    29    33      1
    33    30    31      1
    34    30    34      1
    35    30    35      1
    36    31    36      1
    37    36    37      1
    38    36    39      1
    39    36    40      1
    40    37    38      1
    41    37    41      1
    42    37    42      1
    43    38    43      1
    44    43    44      1
    45    43    46      1
    46    43    47      1
    47    44    45      1
    48    44    48      1
    49    44    49      1
    50    45    50      1
    51    50    51      1
    52    50    53      1
    53    50    54      1
    54    51    52      1
    55    51    55      1
    56    51    56      1
    57    52    57      1
    58    57    58      1
    59    57    60      1
    60    57    61      1
    61    58    59      1
    62    58    62      1
    63    58    63      1
    64    59    64      1
    65    64    65      1
    66    64    67      1
    67    64    68      1
    68    65    66      1
    69    65    69      1
    70    65    70      1
    71    66    71      1
    72    71    72      1
    73    71    74      1
    74    71    75      1
    75    72    73      1
    76    72    76      1
    77    72    77      1
    78    73    78      1
    79    78    79      1
    80    78    81      1
    81    78    82      1
    82    79    80      1
    83    79    83      1
    84    79    84      1
    85    80    85      1
    86    85    86      1
    87    85    88      1
    88    85    89      1
    89    86    87      1
    90    86    90      1
    91    86    91      1
    92    87    92      1
    93    92    93      1
    94    92    95      1
    95    92    96      1
    96    93    94      1
    97    93    97      1
    98    93    98      1
    99    94    99      1
   100    99   100      1
   101    99   102      1
   102    99   103      1
   103   100   101      1
   104   100   104      1
   105   100   105      1
   106   101   106      1
   107   106   107      1
   108   106   109      1
   109   106   110      1
   110   107   108      1
   111   107   111      1
   112   107   112      1
   113   108   113      1
   114   113   114      1
   115   113   116      1
   116   113   117      1
   117   114   115      1
   118   114   118      1
   119   114   119      1
   120   115   120      1
   121   120   121      1
   122   120   123      1
   123   120   124      1
   124   121   122      1
   125   121   125      1
   126   121   126      1
   127   122   127      1
   128   127   128      1
   129   127   130      1
   130   127   131      1
   131   128   129      1
   132   128   132      1
   133   128   133      1
   134   129   134      1
   135   134   135      1
   136   134   137      1
   137   134   138      1
   138   135   136      1
   139   135   139      1
   140   135   140      1
   141   136   141      1
   142   141   142      1
   143   141   144      1
   144   141   145      1
   145   142   143      1
   146   142   146      1
   147   142   147      1
   148   143   148      1
   149   148   149      1
   150   148   151      1
   151   148   152      1
   152   149   150      1
   153   149   153      1
   154   149   154      1
   155   150   155      1
   156   155   156      1
   157   155   158      1
   158   155   159      1
   159   156   157      1
   160   156   160      1
   161   156   161      1
   162   157   162      1
   163   162   163      1
   164   162   165      1
   165   162   166      1
   166   163   164      1
   167   163   167      1
   168   163   168      1
   169   164   169      1
   170   169   170      1
   171   169   172      1
   172   169   173      1
   173   170   171      1
   174   170   174      1
   175   170   175      1
   176   171   176      1
   177   176   177      1
   178   176   179      1
   179   176   180      1
   180   177   178      1
   181   177   181      1
   182   177   182      1
   183   178   183      1
   184   183   184      1
   185   183   186      1
   186   183   187      1
   187   184   185      1
   188   184   188      1
   189   184   189      1
   190   185   190      1
   191   190   191      1
   192   190   193      1
   193   190   194      1
   194   191   192      1
   195   191   195      1
   196   191   196      1
   197   192   197      1
   198   197   198      1
   199   197   200      1
   200   197   201      1
   201   198   199      1
   202   198   202      1
   203   198   203      1
   204   199   204      1
