###
### Created by PolyChef-cpp17 on Mon May 12 10:39:10 2025
###

@<TRIPOS>MOLECULE
NO_INFO
947 946 1 0 0
SMALL
USER_CHARGES


@<TRIPOS>ATOM
      1 C          58.0290  167.0389    9.6782 C.3       0      M_A    0.0000
      2 C          59.4532  166.9964    9.1322 C.3       0      M_A    0.0000
      3 O          60.3957  167.2599   10.1715 O.3       0      M_A    0.0000
      4 H          57.5538  166.0665    9.5051 H         0      M_A    0.0000
      5 H          58.0250  167.2219   10.7580 H         0      M_A    0.0000
      6 H          59.6472  166.0260    8.6531 H         0      M_A    0.0000
      7 H          59.5988  167.7579    8.3558 H         0      M_A    0.0000
      8 C          60.3059  166.3018   11.2063 C.3       1      M_A    0.0000
      9 C          61.6782  165.7973   11.6423 C.3       1      M_A    0.0000
     10 O          62.2156  166.6319   12.6683 O.3       1      M_A    0.0000
     11 H          59.7194  165.4551   10.8316 H         1      M_A    0.0000
     12 H          59.7584  166.7367   12.0493 H         1      M_A    0.0000
     13 H          61.6104  164.7508   11.9728 H         1      M_A    0.0000
     14 H          62.3859  165.8104   10.8040 H         1      M_A    0.0000
     15 C          63.6190  166.4967   12.7629 C.3       2      M_A    0.0000
     16 C          64.3398  167.1566   11.5912 C.3       2      M_A    0.0000
     17 O          65.6750  167.5048   11.9569 O.3       2      M_A    0.0000
     18 H          63.8549  165.4263   12.7668 H         2      M_A    0.0000
     19 H          63.9545  166.9132   13.7187 H         2      M_A    0.0000
     20 H          64.3254  166.4932   10.7145 H         2      M_A    0.0000
     21 H          63.8311  168.0800   11.2871 H         2      M_A    0.0000
     22 C          66.2136  166.5851   12.8848 C.3       3      M_A    0.0000
     23 C          67.1447  165.5763   12.2190 C.3       3      M_A    0.0000
     24 O          68.4594  165.6708   12.7673 O.3       3      M_A    0.0000
     25 H          65.3792  166.0458   13.3477 H         3      M_A    0.0000
     26 H          66.7307  167.1377   13.6765 H         3      M_A    0.0000
     27 H          66.7399  164.5594   12.3238 H         3      M_A    0.0000
     28 H          67.2238  165.7668   11.1414 H         3      M_A    0.0000
     29 C          69.3936  164.9393   12.0000 C.3       4      M_A    0.0000
     30 C          70.7090  164.7294   12.7442 C.3       4      M_A    0.0000
     31 O          71.2576  163.4473   12.4392 O.3       4      M_A    0.0000
     32 H          69.5919  165.5044   11.0821 H         4      M_A    0.0000
     33 H          68.9466  163.9825   11.7098 H         4      M_A    0.0000
     34 H          71.4160  165.5353   12.4999 H         4      M_A    0.0000
     35 H          70.5568  164.7717   13.8300 H         4      M_A    0.0000
     36 C          71.2515  163.1998   11.0479 C.3       5      M_A    0.0000
     37 C          72.4352  162.3412   10.6124 C.3       5      M_A    0.0000
     38 O          72.0359  160.9793   10.4582 O.3       5      M_A    0.0000
     39 H          71.3061  164.1660   10.5335 H         5      M_A    0.0000
     40 H          70.3007  162.7311   10.7725 H         5      M_A    0.0000
     41 H          72.8704  162.7378    9.6838 H         5      M_A    0.0000
     42 H          73.2354  162.3660   11.3627 H         5      M_A    0.0000
     43 C          72.8643  160.2984    9.5380 C.3       6      M_A    0.0000
     44 C          73.1548  158.8664    9.9775 C.3       6      M_A    0.0000
     45 O          72.2998  157.9499    9.2942 O.3       6      M_A    0.0000
     46 H          73.8108  160.8464    9.4670 H         6      M_A    0.0000
     47 H          72.3938  160.3206    8.5492 H         6      M_A    0.0000
     48 H          74.2145  158.6256    9.8099 H         6      M_A    0.0000
     49 H          72.9770  158.7421   11.0530 H         6      M_A    0.0000
     50 C          72.3328  156.6691    9.8902 C.3       7      M_A    0.0000
     51 C          71.6404  155.6170    9.0289 C.3       7      M_A    0.0000
     52 O          72.3253  154.3677    9.1179 O.3       7      M_A    0.0000
     53 H          71.8167  156.7330   10.8551 H         7      M_A    0.0000
     54 H          73.3741  156.3943   10.0892 H         7      M_A    0.0000
     55 H          70.5864  155.5172    9.3257 H         7      M_A    0.0000
     56 H          71.6363  155.9149    7.9730 H         7      M_A    0.0000
     57 C          72.9316  154.1991   10.3831 C.3       8      M_A    0.0000
     58 C          72.4324  152.9462   11.0967 C.3       8      M_A    0.0000
     59 O          73.1109  151.7887   10.6092 O.3       8      M_A    0.0000
     60 H          72.6870  155.0760   10.9935 H         8      M_A    0.0000
     61 H          74.0194  154.1758   10.2579 H         8      M_A    0.0000
     62 H          72.5561  153.0539   12.1839 H         8      M_A    0.0000
     63 H          71.3597  152.7961   10.9221 H         8      M_A    0.0000
     64 C          72.3175  150.6276   10.7474 C.3       9      M_A    0.0000
     65 C          71.8154  150.1117    9.4021 C.3       9      M_A    0.0000
     66 O          71.9693  148.6949    9.3203 O.3       9      M_A    0.0000
     67 H          71.4549  150.8815   11.3741 H         9      M_A    0.0000
     68 H          72.8952  149.8606   11.2742 H         9      M_A    0.0000
     69 H          70.7682  150.4097    9.2482 H         9      M_A    0.0000
     70 H          72.3858  150.5525    8.5750 H         9      M_A    0.0000
     71 C          71.2949  148.0395   10.3750 C.3      10      M_A    0.0000
     72 C          70.8615  146.6281    9.9901 C.3      10      M_A    0.0000
     73 O          71.6565  145.6573   10.6709 O.3      10      M_A    0.0000
     74 H          70.4045  148.6286   10.6231 H        10      M_A    0.0000
     75 H          71.9410  148.0274   11.2593 H        10      M_A    0.0000
     76 H          69.7916  146.4886   10.2020 H        10      M_A    0.0000
     77 H          70.9869  146.4588    8.9134 H        10      M_A    0.0000
     78 C          71.5758  144.3925   10.0460 C.3      11      M_A    0.0000
     79 C          71.6981  143.2482   11.0480 C.3      11      M_A    0.0000
     80 O          70.4811  142.5045   11.1094 O.3      11      M_A    0.0000
     81 H          72.3969  144.3204    9.3236 H        11      M_A    0.0000
     82 H          70.6362  144.3295    9.4868 H        11      M_A    0.0000
     83 H          72.5483  142.6027   10.7849 H        11      M_A    0.0000
     84 H          71.9013  143.6295   12.0565 H        11      M_A    0.0000
     85 C          70.5059  141.5577   12.1581 C.3      12      M_A    0.0000
     86 C          69.1084  141.0608   12.5161 C.3      12      M_A    0.0000
     87 O          68.9694  139.6784   12.1879 O.3      12      M_A    0.0000
     88 H          70.9467  142.0406   13.0377 H        12      M_A    0.0000
     89 H          71.1602  140.7266   11.8738 H        12      M_A    0.0000
     90 H          68.9026  141.2416   13.5810 H        12      M_A    0.0000
     91 H          68.3411  141.6101   11.9564 H        12      M_A    0.0000
     92 C          67.6142  139.3252   12.0000 C.3      13      M_A    0.0000
     93 C          67.3726  137.8355   12.2250 C.3      13      M_A    0.0000
     94 O          66.1276  137.6254   12.8912 O.3      13      M_A    0.0000
     95 H          67.3401  139.5771   10.9691 H        13      M_A    0.0000
     96 H          66.9911  139.9317   12.6659 H        13      M_A    0.0000
     97 H          67.4098  137.2961   11.2676 H        13      M_A    0.0000
     98 H          68.1593  137.4009   12.8543 H        13      M_A    0.0000
     99 C          65.0435  137.6637   11.9856 C.3      14      M_A    0.0000
    100 C          64.2768  136.3449   11.9518 C.3      14      M_A    0.0000
    101 O          63.0352  136.4699   12.6450 O.3      14      M_A    0.0000
    102 H          65.4461  137.8654   10.9864 H        14      M_A    0.0000
    103 H          64.3848  138.4972   12.2518 H        14      M_A    0.0000
    104 H          64.1236  136.0215   10.9121 H        14      M_A    0.0000
    105 H          64.8477  135.5463   12.4418 H        14      M_A    0.0000
    106 C          62.3931  135.2190   12.7857 C.3      15      M_A    0.0000
    107 C          63.1263  134.3040   13.7621 C.3      15      M_A    0.0000
    108 O          62.2701  133.2477   14.1972 O.3      15      M_A    0.0000
    109 H          62.3694  134.7397   11.8003 H        15      M_A    0.0000
    110 H          61.3567  135.3826   13.0995 H        15      M_A    0.0000
    111 H          64.0426  133.9108   13.2987 H        15      M_A    0.0000
    112 H          63.4452  134.8570   14.6544 H        15      M_A    0.0000
    113 C          61.4074  132.8216   13.1623 C.3      16      M_A    0.0000
    114 C          60.9289  131.3874   13.3678 C.3      16      M_A    0.0000
    115 O          59.5969  131.2294   12.8791 O.3      16      M_A    0.0000
    116 H          61.9603  132.8790   12.2177 H        16      M_A    0.0000
    117 H          60.5620  133.5145   13.0938 H        16      M_A    0.0000
    118 H          61.6195  130.6835   12.8814 H        16      M_A    0.0000
    119 H          60.9212  131.1250   14.4331 H        16      M_A    0.0000
    120 C          59.5574  130.3788   11.7513 C.3      17      M_A    0.0000
    121 C          58.5207  129.2697   11.9048 C.3      17      M_A    0.0000
    122 O          57.5757  129.3165   10.8358 O.3      17      M_A    0.0000
    123 H          60.5482  129.9246   11.6369 H        17      M_A    0.0000
    124 H          59.3634  130.9802   10.8568 H        17      M_A    0.0000
    125 H          59.0177  128.2903   11.9566 H        17      M_A    0.0000
    126 H          57.9619  129.3817   12.8423 H        17      M_A    0.0000
    127 C          56.2881  128.9245   11.2662 C.3      18      M_A    0.0000
    128 C          55.9119  127.5351   10.7603 C.3      18      M_A    0.0000
    129 O          55.4226  126.7280   11.8314 O.3      18      M_A    0.0000
    130 H          55.5666  129.6514   10.8759 H        18      M_A    0.0000
    131 H          56.2471  128.9716   12.3597 H        18      M_A    0.0000
    132 H          55.1737  127.6135    9.9492 H        18      M_A    0.0000
    133 H          56.7839  127.0228   10.3348 H        18      M_A    0.0000
    134 C          54.5533  125.7175   11.3622 C.3      19      M_A    0.0000
    135 C          54.2524  124.6752   12.4351 C.3      19      M_A    0.0000
    136 O          52.8702  124.3191   12.4133 O.3      19      M_A    0.0000
    137 H          55.0389  125.2226   10.5134 H        19      M_A    0.0000
    138 H          53.6326  126.1815   10.9925 H        19      M_A    0.0000
    139 H          54.8948  123.7934   12.2983 H        19      M_A    0.0000
    140 H          54.4751  125.0663   13.4357 H        19      M_A    0.0000
    141 C          52.5047  123.5934   13.5695 C.3      20      M_A    0.0000
    142 C          51.4876  122.4983   13.2623 C.3      20      M_A    0.0000
    143 O          52.1495  121.2655   12.9795 O.3      20      M_A    0.0000
    144 H          52.0628  124.2976   14.2836 H        20      M_A    0.0000
    145 H          53.4070  123.1770   14.0301 H        20      M_A    0.0000
    146 H          50.7818  122.3906   14.0985 H        20      M_A    0.0000
    147 H          50.8855  122.7573   12.3825 H        20      M_A    0.0000
    148 C          51.2663  120.1677   13.0875 C.3      21      M_A    0.0000
    149 C          49.9111  120.4560   12.4485 C.3      21      M_A    0.0000
    150 O          49.4420  119.3134   11.7329 O.3      21      M_A    0.0000
    151 H          51.1185  119.9577   14.1530 H        21      M_A    0.0000
    152 H          51.7357  119.2860   12.6382 H        21      M_A    0.0000
    153 H          49.1893  120.7715   13.2156 H        21      M_A    0.0000
    154 H          49.9827  121.2850   11.7333 H        21      M_A    0.0000
    155 C          48.2822  119.6129   10.9831 C.3      22      M_A    0.0000
    156 C          47.5572  118.3531   10.5191 C.3      22      M_A    0.0000
    157 O          46.3707  118.1475   11.2858 O.3      22      M_A    0.0000
    158 H          48.5895  120.1896   10.1031 H        22      M_A    0.0000
    159 H          47.6235  120.2499   11.5830 H        22      M_A    0.0000
    160 H          47.3327  118.4183    9.4448 H        22      M_A    0.0000
    161 H          48.1897  117.4660   10.6484 H        22      M_A    0.0000
    162 C          45.8622  116.8406   11.1114 C.3      23      M_A    0.0000
    163 C          44.9766  116.4088   12.2765 C.3      23      M_A    0.0000
    164 O          43.8021  115.7545   11.7967 O.3      23      M_A    0.0000
    165 H          46.7138  116.1544   11.0400 H        23      M_A    0.0000
    166 H          45.3178  116.7927   10.1622 H        23      M_A    0.0000
    167 H          45.5418  115.7629   12.9637 H        23      M_A    0.0000
    168 H          44.6523  117.2759   12.8654 H        23      M_A    0.0000
    169 C          44.0550  114.3990   11.4875 C.3      24      M_A    0.0000
    170 C          44.3584  113.5728   12.7339 C.3      24      M_A    0.0000
    171 O          43.1514  113.0719   13.3084 O.3      24      M_A    0.0000
    172 H          44.9219  114.3621   10.8180 H        24      M_A    0.0000
    173 H          43.1975  113.9909   10.9418 H        24      M_A    0.0000
    174 H          45.0531  112.7566   12.4883 H        24      M_A    0.0000
    175 H          44.8573  114.1827   13.4974 H        24      M_A    0.0000
    176 C          42.2851  114.1216   13.6886 C.3      25      M_A    0.0000
    177 C          41.5739  114.7419   12.4896 C.3      25      M_A    0.0000
    178 O          40.1850  114.9189   12.7680 O.3      25      M_A    0.0000
    179 H          42.8870  114.8933   14.1820 H        25      M_A    0.0000
    180 H          41.5656  113.7431   14.4225 H        25      M_A    0.0000
    181 H          42.0514  115.6938   12.2159 H        25      M_A    0.0000
    182 H          41.6522  114.0934   11.6081 H        25      M_A    0.0000
    183 C          39.9851  115.5941   13.9932 C.3      26      M_A    0.0000
    184 C          38.5533  115.4506   14.5008 C.3      26      M_A    0.0000
    185 O          38.5102  114.5931   15.6413 O.3      26      M_A    0.0000
    186 H          40.1990  116.6567   13.8311 H        26      M_A    0.0000
    187 H          40.7048  115.2198   14.7290 H        26      M_A    0.0000
    188 H          38.1303  116.4398   14.7280 H        26      M_A    0.0000
    189 H          37.9069  115.0082   13.7325 H        26      M_A    0.0000
    190 C          37.5556  113.5639   15.4788 C.3      27      M_A    0.0000
    191 C          37.3708  112.7458   16.7534 C.3      27      M_A    0.0000
    192 O          36.0085  112.3445   16.8974 O.3      27      M_A    0.0000
    193 H          37.9074  112.9011   14.6799 H        27      M_A    0.0000
    194 H          36.6079  114.0041   15.1507 H        27      M_A    0.0000
    195 H          38.0451  111.8773   16.7480 H        27      M_A    0.0000
    196 H          37.6351  113.3355   17.6401 H        27      M_A    0.0000
    197 C          35.7220  111.1987   16.1216 C.3      28      M_A    0.0000
    198 C          36.4456  109.9591   16.6393 C.3      28      M_A    0.0000
    199 O          35.7335  109.3853   17.7355 O.3      28      M_A    0.0000
    200 H          36.0490  111.3969   15.0944 H        28      M_A    0.0000
    201 H          34.6381  111.0435   16.1000 H        28      M_A    0.0000
    202 H          36.5816  109.2317   15.8261 H        28      M_A    0.0000
    203 H          37.4512  110.2125   16.9975 H        28      M_A    0.0000
    204 C          36.5849  109.1483   18.8381 C.3      29      M_A    0.0000
    205 C          35.8042  108.9473   20.1336 C.3      29      M_A    0.0000
    206 O          36.2527  107.7738   20.8113 O.3      29      M_A    0.0000
    207 H          37.2407  110.0192   18.9508 H        29      M_A    0.0000
    208 H          37.2190  108.2823   18.6203 H        29      M_A    0.0000
    209 H          35.8942  109.8374   20.7729 H        29      M_A    0.0000
    210 H          34.7333  108.8206   19.9310 H        29      M_A    0.0000
    211 C          36.6261  106.7608   19.8995 C.3      30      M_A    0.0000
    212 C          37.4031  105.6361   20.5774 C.3      30      M_A    0.0000
    213 O          36.5506  104.5186   20.8271 O.3      30      M_A    0.0000
    214 H          37.2603  107.2165   19.1306 H        30      M_A    0.0000
    215 H          35.7278  106.3776   19.4036 H        30      M_A    0.0000
    216 H          38.2688  105.3492   19.9633 H        30      M_A    0.0000
    217 H          37.8060  105.9642   21.5437 H        30      M_A    0.0000
    218 C          36.3977  103.7168   19.6735 C.3      31      M_A    0.0000
    219 C          37.6948  103.0117   19.2883 C.3      31      M_A    0.0000
    220 O          37.8625  101.8188   20.0542 O.3      31      M_A    0.0000
    221 H          36.0900  104.3690   18.8482 H        31      M_A    0.0000
    222 H          35.5912  102.9956   19.8440 H        31      M_A    0.0000
    223 H          37.7053  102.7991   18.2096 H        31      M_A    0.0000
    224 H          38.5633  103.6528   19.4845 H        31      M_A    0.0000
    225 C          36.6525  101.0963   20.1579 C.3      32      M_A    0.0000
    226 C          36.7398   99.9749   21.1890 C.3      32      M_A    0.0000
    227 O          35.6260  100.0266   22.0803 O.3      32      M_A    0.0000
    228 H          36.4356  100.6594   19.1764 H        32      M_A    0.0000
    229 H          35.8407  101.7914   20.3977 H        32      M_A    0.0000
    230 H          36.8036   98.9999   20.6847 H        32      M_A    0.0000
    231 H          37.6499  100.0686   21.7947 H        32      M_A    0.0000
    232 C          35.9669   99.5413   23.3629 C.3      33      M_A    0.0000
    233 C          35.0495   98.4072   23.8102 C.3      33      M_A    0.0000
    234 O          35.1259   98.2300   25.2247 O.3      33      M_A    0.0000
    235 H          35.8761  100.3717   24.0725 H        33      M_A    0.0000
    236 H          37.0150   99.2233   23.3577 H        33      M_A    0.0000
    237 H          34.0172   98.6042   23.4871 H        33      M_A    0.0000
    238 H          35.3424   97.4582   23.3440 H        33      M_A    0.0000
    239 C          34.4638   97.0509   25.6347 C.3      34      M_A    0.0000
    240 C          33.8899   97.1748   27.0431 C.3      34      M_A    0.0000
    241 O          32.4760   96.9786   27.0265 O.3      34      M_A    0.0000
    242 H          35.1926   96.2325   25.6196 H        34      M_A    0.0000
    243 H          33.6802   96.8100   24.9084 H        34      M_A    0.0000
    244 H          34.3846   96.4620   27.7185 H        34      M_A    0.0000
    245 H          34.0782   98.1731   27.4573 H        34      M_A    0.0000
    246 C          31.8513   97.6256   28.1164 C.3      35      M_A    0.0000
    247 C          31.2851   96.6318   29.1262 C.3      35      M_A    0.0000
    248 O          31.8719   96.8351   30.4116 O.3      35      M_A    0.0000
    249 H          31.0309   98.2356   27.7210 H        35      M_A    0.0000
    250 H          32.5699   98.3035   28.5892 H        35      M_A    0.0000
    251 H          30.1896   96.7165   29.1689 H        35      M_A    0.0000
    252 H          31.5027   95.5993   28.8253 H        35      M_A    0.0000
    253 C          31.5027   95.8141   31.3161 C.3      36      M_A    0.0000
    254 C          32.3973   95.7907   32.5519 C.3      36      M_A    0.0000
    255 O          31.6968   95.2386   33.6665 O.3      36      M_A    0.0000
    256 H          31.5924   94.8539   30.7953 H        36      M_A    0.0000
    257 H          30.4508   95.9442   31.5919 H        36      M_A    0.0000
    258 H          33.3199   95.2305   32.3421 H        36      M_A    0.0000
    259 H          32.7094   96.8052   32.8298 H        36      M_A    0.0000
    260 C          32.5329   95.1298   34.8005 C.3      37      M_A    0.0000
    261 C          32.7108   93.6813   35.2458 C.3      37      M_A    0.0000
    262 O          34.0921   93.3884   35.4560 O.3      37      M_A    0.0000
    263 H          32.0701   95.6972   35.6161 H        37      M_A    0.0000
    264 H          33.4985   95.5966   34.5787 H        37      M_A    0.0000
    265 H          32.1186   93.4873   36.1517 H        37      M_A    0.0000
    266 H          32.3404   92.9872   34.4811 H        37      M_A    0.0000
    267 C          34.5274   93.8314   36.7253 C.3      38      M_A    0.0000
    268 C          35.1975   92.7170   37.5236 C.3      38      M_A    0.0000
    269 O          36.4418   93.1650   38.0611 O.3      38      M_A    0.0000
    270 H          33.6496   94.1849   37.2782 H        38      M_A    0.0000
    271 H          35.2018   94.6843   36.5942 H        38      M_A    0.0000
    272 H          34.5245   92.3607   38.3167 H        38      M_A    0.0000
    273 H          35.4085   91.8495   36.8858 H        38      M_A    0.0000
    274 C          37.3634   92.1013   38.1879 C.3      39      M_A    0.0000
    275 C          38.5137   92.4473   39.1288 C.3      39      M_A    0.0000
    276 O          38.9585   91.2830   39.8248 O.3      39      M_A    0.0000
    277 H          37.7710   91.8881   37.1931 H        39      M_A    0.0000
    278 H          36.8313   91.2059   38.5266 H        39      M_A    0.0000
    279 H          39.3350   92.9160   38.5678 H        39      M_A    0.0000
    280 H          38.1979   93.1798   39.8822 H        39      M_A    0.0000
    281 C          39.6363   90.3922   38.9623 C.3      40      M_A    0.0000
    282 C          41.1520   90.5048   39.0964 C.3      40      M_A    0.0000
    283 O          41.7115   89.2590   39.5120 O.3      40      M_A    0.0000
    284 H          39.3522   90.6384   37.9327 H        40      M_A    0.0000
    285 H          39.2963   89.3709   39.1644 H        40      M_A    0.0000
    286 H          41.5927   90.8445   38.1481 H        40      M_A    0.0000
    287 H          41.4249   91.2549   39.8491 H        40      M_A    0.0000
    288 C          43.0793   89.1662   39.1691 C.3      41      M_A    0.0000
    289 C          43.8044   88.0994   39.9841 C.3      41      M_A    0.0000
    290 O          43.7708   86.8432   39.3067 O.3      41      M_A    0.0000
    291 H          43.5430   90.1394   39.3668 H        41      M_A    0.0000
    292 H          43.1659   88.9700   38.0951 H        41      M_A    0.0000
    293 H          44.8373   88.4155   40.1894 H        41      M_A    0.0000
    294 H          43.3254   87.9586   40.9611 H        41      M_A    0.0000
    295 C          43.9816   85.7684   40.1995 C.3      42      M_A    0.0000
    296 C          42.7739   85.5241   41.0995 C.3      42      M_A    0.0000
    297 O          42.8410   84.2240   41.6852 O.3      42      M_A    0.0000
    298 H          44.8464   86.0153   40.8260 H        42      M_A    0.0000
    299 H          44.2344   84.8709   39.6249 H        42      M_A    0.0000
    300 H          42.7098   86.3066   41.8693 H        42      M_A    0.0000
    301 H          41.8399   85.5785   40.5264 H        42      M_A    0.0000
    302 C          42.2400   84.2011   42.9639 C.3      43      M_A    0.0000
    303 C          41.4236   82.9324   43.1920 C.3      43      M_A    0.0000
    304 O          42.2072   81.9474   43.8656 O.3      43      M_A    0.0000
    305 H          41.5748   85.0690   43.0392 H        43      M_A    0.0000
    306 H          43.0181   84.3130   43.7265 H        43      M_A    0.0000
    307 H          40.5072   83.1664   43.7527 H        43      M_A    0.0000
    308 H          41.0987   82.4978   42.2383 H        43      M_A    0.0000
    309 C          41.8621   80.6408   43.4526 C.3      44      M_A    0.0000
    310 C          42.6543   79.5737   44.2022 C.3      44      M_A    0.0000
    311 O          41.7805   78.5636   44.7063 O.3      44      M_A    0.0000
    312 H          42.0800   80.5573   42.3817 H        44      M_A    0.0000
    313 H          40.7842   80.4977   43.5833 H        44      M_A    0.0000
    314 H          43.4263   79.1443   43.5475 H        44      M_A    0.0000
    315 H          43.1839   80.0077   45.0595 H        44      M_A    0.0000
    316 C          42.2206   78.0766   45.9577 C.3      45      M_A    0.0000
    317 C          41.6079   76.7202   46.2936 C.3      45      M_A    0.0000
    318 O          42.4120   76.0311   47.2510 O.3      45      M_A    0.0000
    319 H          41.9220   78.8003   46.7249 H        45      M_A    0.0000
    320 H          43.3147   78.0270   45.9572 H        45      M_A    0.0000
    321 H          40.5774   76.8483   46.6551 H        45      M_A    0.0000
    322 H          41.5445   76.0861   45.4005 H        45      M_A    0.0000
    323 C          41.7850   75.9864   48.5166 C.3      46      M_A    0.0000
    324 C          42.3394   74.8668   49.3927 C.3      46      M_A    0.0000
    325 O          42.1724   75.1834   50.7746 O.3      46      M_A    0.0000
    326 H          40.7145   75.8142   48.3565 H        46      M_A    0.0000
    327 H          41.8945   76.9609   49.0042 H        46      M_A    0.0000
    328 H          41.8558   73.9123   49.1398 H        46      M_A    0.0000
    329 H          43.4128   74.7247   49.2156 H        46      M_A    0.0000
    330 C          40.8765   75.6816   51.0381 C.3      47      M_A    0.0000
    331 C          40.2343   75.0018   52.2437 C.3      47      M_A    0.0000
    332 O          39.6992   75.9749   53.1407 O.3      47      M_A    0.0000
    333 H          40.2570   75.4939   50.1536 H        47      M_A    0.0000
    334 H          40.9325   76.7662   51.1792 H        47      M_A    0.0000
    335 H          39.4602   74.2945   51.9129 H        47      M_A    0.0000
    336 H          40.9725   74.4120   52.8013 H        47      M_A    0.0000
    337 C          38.7983   75.3912   54.0597 C.3      48      M_A    0.0000
    338 C          39.1367   75.7515   55.5032 C.3      48      M_A    0.0000
    339 O          37.9441   75.9274   56.2679 O.3      48      M_A    0.0000
    340 H          38.8559   74.3029   53.9431 H        48      M_A    0.0000
    341 H          37.7784   75.6981   53.8044 H        48      M_A    0.0000
    342 H          39.7848   74.9809   55.9448 H        48      M_A    0.0000
    343 H          39.6996   76.6920   55.5514 H        48      M_A    0.0000
    344 C          38.1668   76.7571   57.3899 C.3      49      M_A    0.0000
    345 C          37.0613   76.6215   58.4327 C.3      49      M_A    0.0000
    346 O          37.4417   77.2602   59.6514 O.3      49      M_A    0.0000
    347 H          38.1988   77.7954   57.0402 H        49      M_A    0.0000
    348 H          39.1464   76.5220   57.8194 H        49      M_A    0.0000
    349 H          36.1192   77.0330   58.0428 H        49      M_A    0.0000
    350 H          36.8652   75.5666   58.6620 H        49      M_A    0.0000
    351 C          36.6746   78.4233   59.8872 C.3      50      M_A    0.0000
    352 C          37.3937   79.4096   60.8026 C.3      50      M_A    0.0000
    353 O          36.9161   80.7367   60.5822 O.3      50      M_A    0.0000
    354 H          35.7360   78.1172   60.3633 H        50      M_A    0.0000
    355 H          36.4232   78.8863   58.9270 H        50      M_A    0.0000
    356 H          37.2718   79.1101   61.8535 H        50      M_A    0.0000
    357 H          38.4732   79.4122   60.6063 H        50      M_A    0.0000
    358 C          37.8446   81.7020   61.0326 C.3      51      M_A    0.0000
    359 C          37.3177   82.4920   62.2270 C.3      51      M_A    0.0000
    360 O          38.0008   82.1095   63.4207 O.3      51      M_A    0.0000
    361 H          38.0374   82.3955   60.2061 H        51      M_A    0.0000
    362 H          38.7895   81.2037   61.2741 H        51      M_A    0.0000
    363 H          37.4132   83.5713   62.0400 H        51      M_A    0.0000
    364 H          36.2490   82.2999   62.3841 H        51      M_A    0.0000
    365 C          39.3372   82.5690   63.4217 C.3      52      M_A    0.0000
    366 C          39.7602   83.1014   64.7876 C.3      52      M_A    0.0000
    367 O          40.8336   82.3236   65.3175 O.3      52      M_A    0.0000
    368 H          39.4160   83.3776   62.6861 H        52      M_A    0.0000
    369 H          39.9945   81.7570   63.0931 H        52      M_A    0.0000
    370 H          40.0350   84.1634   64.7125 H        52      M_A    0.0000
    371 H          38.9308   83.0477   65.5039 H        52      M_A    0.0000
    372 C          41.8166   83.1410   65.9194 C.3      53      M_A    0.0000
    373 C          42.5147   82.4389   67.0804 C.3      53      M_A    0.0000
    374 O          43.9324   82.5364   66.9445 O.3      53      M_A    0.0000
    375 H          41.3203   84.0424   66.2970 H        53      M_A    0.0000
    376 H          42.5369   83.4545   65.1563 H        53      M_A    0.0000
    377 H          42.1750   82.8595   68.0378 H        53      M_A    0.0000
    378 H          42.2596   81.3721   67.1047 H        53      M_A    0.0000
    379 C          44.5852   81.4261   67.5259 C.3      54      M_A    0.0000
    380 C          45.9402   81.1534   66.8794 C.3      54      M_A    0.0000
    381 O          46.9831   81.7945   67.6137 O.3      54      M_A    0.0000
    382 H          43.9438   80.5481   67.3885 H        54      M_A    0.0000
    383 H          44.6881   81.5958   68.6030 H        54      M_A    0.0000
    384 H          46.1128   80.0703   66.8024 H        54      M_A    0.0000
    385 H          45.9719   81.5441   65.8547 H        54      M_A    0.0000
    386 C          48.1641   81.9048   66.8456 C.3      55      M_A    0.0000
    387 C          48.0356   82.9507   65.7421 C.3      55      M_A    0.0000
    388 O          49.3211   83.4510   65.3746 O.3      55      M_A    0.0000
    389 H          48.3606   80.9286   66.3877 H        55      M_A    0.0000
    390 H          49.0033   82.1334   67.5112 H        55      M_A    0.0000
    391 H          47.5094   82.5253   64.8754 H        55      M_A    0.0000
    392 H          47.4347   83.8047   66.0787 H        55      M_A    0.0000
    393 C          49.8755   82.7153   64.3030 C.3      56      M_A    0.0000
    394 C          51.0946   83.4079   63.7011 C.3      56      M_A    0.0000
    395 O          52.2824   83.0193   64.3911 O.3      56      M_A    0.0000
    396 H          49.1060   82.6159   63.5289 H        56      M_A    0.0000
    397 H          50.1256   81.7080   64.6527 H        56      M_A    0.0000
    398 H          51.1654   83.1855   62.6267 H        56      M_A    0.0000
    399 H          51.0079   84.4984   63.7850 H        56      M_A    0.0000
    400 C          53.3989   82.9949   63.5253 C.3      57      M_A    0.0000
    401 C          54.5776   83.7851   64.0861 C.3      57      M_A    0.0000
    402 O          55.2980   83.0016   65.0376 O.3      57      M_A    0.0000
    403 H          53.0953   83.4405   62.5711 H        57      M_A    0.0000
    404 H          53.6777   81.9538   63.3309 H        57      M_A    0.0000
    405 H          55.2314   84.1225   63.2690 H        57      M_A    0.0000
    406 H          54.2338   84.6915   64.5999 H        57      M_A    0.0000
    407 C          55.0796   83.4600   66.3563 C.3      58      M_A    0.0000
    408 C          55.4547   82.4104   67.3984 C.3      58      M_A    0.0000
    409 O          56.8019   82.5955   67.8327 O.3      58      M_A    0.0000
    410 H          54.0143   83.6965   66.4588 H        58      M_A    0.0000
    411 H          55.6411   84.3877   66.5098 H        58      M_A    0.0000
    412 H          54.7532   82.4478   68.2442 H        58      M_A    0.0000
    413 H          55.3802   81.3985   66.9809 H        58      M_A    0.0000
    414 C          56.8938   83.6049   68.8173 C.3      59      M_A    0.0000
    415 C          58.0645   83.3744   69.7684 C.3      59      M_A    0.0000
    416 O          59.2988   83.7060   69.1326 O.3      59      M_A    0.0000
    417 H          55.9619   83.5989   69.3942 H        59      M_A    0.0000
    418 H          56.9716   84.5796   68.3238 H        59      M_A    0.0000
    419 H          57.9224   83.9532   70.6924 H        59      M_A    0.0000
    420 H          58.1232   82.3213   70.0706 H        59      M_A    0.0000
    421 C          59.0853   84.3563   67.8963 C.3      60      M_A    0.0000
    422 C          59.9673   83.7878   66.7886 C.3      60      M_A    0.0000
    423 O          59.2398   83.7031   65.5633 O.3      60      M_A    0.0000
    424 H          59.3226   85.4181   68.0286 H        60      M_A    0.0000
    425 H          58.0246   84.2843   67.6331 H        60      M_A    0.0000
    426 H          60.8740   84.3992   66.6740 H        60      M_A    0.0000
    427 H          60.3081   82.7754   67.0389 H        60      M_A    0.0000
    428 C          60.0613   84.0000   64.4525 C.3      61      M_A    0.0000
    429 C          61.4563   83.3979   64.5928 C.3      61      M_A    0.0000
    430 O          61.4258   81.9963   64.3235 O.3      61      M_A    0.0000
    431 H          60.1512   85.0900   64.3815 H        61      M_A    0.0000
    432 H          59.5689   83.6482   63.5397 H        61      M_A    0.0000
    433 H          62.1624   83.9173   63.9291 H        61      M_A    0.0000
    434 H          61.8393   83.5282   65.6126 H        61      M_A    0.0000
    435 C          61.4101   81.2404   65.5174 C.3      62      M_A    0.0000
    436 C          62.5980   80.2872   65.6090 C.3      62      M_A    0.0000
    437 O          63.0588   80.1900   66.9566 O.3      62      M_A    0.0000
    438 H          60.4836   80.6550   65.5335 H        62      M_A    0.0000
    439 H          61.3849   81.9240   66.3728 H        62      M_A    0.0000
    440 H          62.3247   79.3006   65.2077 H        62      M_A    0.0000
    441 H          63.4371   80.6458   64.9999 H        62      M_A    0.0000
    442 C          63.7974   79.0036   67.1664 C.3      63      M_A    0.0000
    443 C          65.2665   79.2872   67.4656 C.3      63      M_A    0.0000
    444 O          65.7729   78.3520   68.4178 O.3      63      M_A    0.0000
    445 H          63.7315   78.3999   66.2540 H        63      M_A    0.0000
    446 H          63.3323   78.4316   67.9763 H        63      M_A    0.0000
    447 H          65.8535   79.2690   66.5360 H        63      M_A    0.0000
    448 H          65.3939   80.2906   67.8908 H        63      M_A    0.0000
    449 C          66.8868   77.6472   67.9085 C.3      64      M_A    0.0000
    450 C          67.9778   77.4614   68.9589 C.3      64      M_A    0.0000
    451 O          67.9398   76.1373   69.4912 O.3      64      M_A    0.0000
    452 H          67.2958   78.2234   67.0707 H        64      M_A    0.0000
    453 H          66.5496   76.6828   67.5140 H        64      M_A    0.0000
    454 H          68.9629   77.6909   68.5277 H        64      M_A    0.0000
    455 H          67.8387   78.1563   69.7966 H        64      M_A    0.0000
    456 C          69.1763   75.7783   70.0734 C.3      65      M_A    0.0000
    457 C          69.3719   76.4169   71.4453 C.3      65      M_A    0.0000
    458 O          69.4713   75.4128   72.4552 O.3      65      M_A    0.0000
    459 H          69.9753   76.1207   69.4058 H        65      M_A    0.0000
    460 H          69.2397   74.6865   70.1330 H        65      M_A    0.0000
    461 H          70.2590   77.0665   71.4386 H        65      M_A    0.0000
    462 H          68.5212   77.0598   71.7039 H        65      M_A    0.0000
    463 C          70.1048   75.9087   73.6169 C.3      66      M_A    0.0000
    464 C          69.9304   74.9732   74.8096 C.3      66      M_A    0.0000
    465 O          70.9611   75.1927   75.7727 O.3      66      M_A    0.0000
    466 H          69.6549   76.8785   73.8582 H        66      M_A    0.0000
    467 H          71.1647   76.0799   73.4005 H        66      M_A    0.0000
    468 H          68.9334   75.1062   75.2536 H        66      M_A    0.0000
    469 H          69.9910   73.9232   74.4972 H        66      M_A    0.0000
    470 C          71.5485   76.4688   75.6199 C.3      67      M_A    0.0000
    471 C          72.9322   76.5440   76.2585 C.3      67      M_A    0.0000
    472 O          73.8632   77.1548   75.3652 O.3      67      M_A    0.0000
    473 H          70.8937   77.2015   76.1053 H        67      M_A    0.0000
    474 H          71.5910   76.7173   74.5541 H        67      M_A    0.0000
    475 H          72.8803   77.0858   77.2139 H        67      M_A    0.0000
    476 H          73.3114   75.5415   76.4931 H        67      M_A    0.0000
    477 C          74.9507   77.7267   76.0631 C.3      68      M_A    0.0000
    478 C          76.1805   76.8237   76.0492 C.3      68      M_A    0.0000
    479 O          77.3748   77.6050   76.0163 O.3      68      M_A    0.0000
    480 H          74.6388   77.8850   77.1018 H        68      M_A    0.0000
    481 H          75.1759   78.7079   75.6317 H        68      M_A    0.0000
    482 H          76.1669   76.1505   76.9185 H        68      M_A    0.0000
    483 H          76.1847   76.1797   75.1609 H        68      M_A    0.0000
    484 C          78.5166   76.7963   75.8181 C.3      69      M_A    0.0000
    485 C          79.7702   77.4124   76.4322 C.3      69      M_A    0.0000
    486 O          80.5499   76.4122   77.0874 O.3      69      M_A    0.0000
    487 H          78.6682   76.6862   74.7382 H        69      M_A    0.0000
    488 H          78.3241   75.7995   76.2288 H        69      M_A    0.0000
    489 H          80.3547   77.9329   75.6600 H        69      M_A    0.0000
    490 H          79.5086   78.1689   77.1827 H        69      M_A    0.0000
    491 C          81.6765   76.9732   77.7301 C.3      70      M_A    0.0000
    492 C          82.9277   76.1199   77.5441 C.3      70      M_A    0.0000
    493 O          84.0167   76.9216   77.0867 O.3      70      M_A    0.0000
    494 H          81.4526   77.0454   78.8006 H        70      M_A    0.0000
    495 H          81.8323   77.9902   77.3549 H        70      M_A    0.0000
    496 H          83.1776   75.6033   78.4820 H        70      M_A    0.0000
    497 H          82.7602   75.3354   76.7955 H        70      M_A    0.0000
    498 C          85.2564   76.4169   77.5398 C.3      71      M_A    0.0000
    499 C          86.3712   76.6326   76.5206 C.3      71      M_A    0.0000
    500 O          87.6004   76.9361   77.1800 O.3      71      M_A    0.0000
    501 H          85.1389   75.3412   77.7144 H        71      M_A    0.0000
    502 H          85.5028   76.8832   78.4997 H        71      M_A    0.0000
    503 H          86.4716   75.7482   75.8750 H        71      M_A    0.0000
    504 H          86.1383   77.4741   75.8563 H        71      M_A    0.0000
    505 C          88.2457   75.7646   77.6360 C.3      72      M_A    0.0000
    506 C          89.5832   75.5371   76.9378 C.3      72      M_A    0.0000
    507 O          90.6605   75.9795   77.7634 O.3      72      M_A    0.0000
    508 H          87.5872   74.9138   77.4266 H        72      M_A    0.0000
    509 H          88.3722   75.8260   78.7222 H        72      M_A    0.0000
    510 H          89.6952   74.4769   76.6685 H        72      M_A    0.0000
    511 H          89.6365   76.1009   75.9981 H        72      M_A    0.0000
    512 C          91.8924   75.4273   77.3462 C.3      73      M_A    0.0000
    513 C          92.9813   76.4878   77.2130 C.3      73      M_A    0.0000
    514 O          93.8967   76.4052   78.3054 O.3      73      M_A    0.0000
    515 H          91.7365   74.9548   76.3696 H        73      M_A    0.0000
    516 H          92.1890   74.6425   78.0503 H        73      M_A    0.0000
    517 H          93.4988   76.3814   76.2488 H        73      M_A    0.0000
    518 H          92.5499   77.4966   77.2215 H        73      M_A    0.0000
    519 C          94.9623   77.3215   78.1576 C.3      74      M_A    0.0000
    520 C          95.9639   77.2271   79.3048 C.3      74      M_A    0.0000
    521 O          97.2992   77.3475   78.8144 O.3      74      M_A    0.0000
    522 H          94.5379   78.3319   78.1398 H        74      M_A    0.0000
    523 H          95.4498   77.1500   77.1920 H        74      M_A    0.0000
    524 H          95.7458   77.9928   80.0631 H        74      M_A    0.0000
    525 H          95.8871   76.2584   79.8142 H        74      M_A    0.0000
    526 C          97.5854   78.6719   78.4133 C.3      75      M_A    0.0000
    527 C          98.8438   79.2155   79.0835 C.3      75      M_A    0.0000
    528 O          99.9162   79.2951   78.1447 O.3      75      M_A    0.0000
    529 H          96.7334   79.3010   78.6955 H        75      M_A    0.0000
    530 H          97.6735   78.7037   77.3221 H        75      M_A    0.0000
    531 H          98.6381   80.1947   79.5395 H        75      M_A    0.0000
    532 H          99.1694   78.5581   79.8993 H        75      M_A    0.0000
    533 C         100.9627   80.1152   78.6232 C.3      76      M_A    0.0000
    534 C         101.3467   79.7759   80.0604 C.3      76      M_A    0.0000
    535 O         102.7629   79.8403   80.2286 O.3      76      M_A    0.0000
    536 H         100.6204   81.1557   78.5839 H        76      M_A    0.0000
    537 H         101.8235   80.0243   77.9521 H        76      M_A    0.0000
    538 H         100.8300   80.4484   80.7602 H        76      M_A    0.0000
    539 H         101.0308   78.7581   80.3213 H        76      M_A    0.0000
    540 C         103.2004   81.1693   80.4262 C.3      77      M_A    0.0000
    541 C         104.6521   81.2327   80.8915 C.3      77      M_A    0.0000
    542 O         105.3284   82.3276   80.2736 O.3      77      M_A    0.0000
    543 H         102.5622   81.6237   81.1927 H        77      M_A    0.0000
    544 H         103.0575   81.7342   79.4988 H        77      M_A    0.0000
    545 H         104.6965   81.3027   81.9879 H        77      M_A    0.0000
    546 H         105.1920   80.3172   80.6192 H        77      M_A    0.0000
    547 C         104.5317   83.4947   80.2746 C.3      78      M_A    0.0000
    548 C         105.2289   84.6651   80.9617 C.3      78      M_A    0.0000
    549 O         106.1378   85.3029   80.0645 O.3      78      M_A    0.0000
    550 H         103.6041   83.2690   80.8130 H        78      M_A    0.0000
    551 H         104.2632   83.7450   79.2428 H        78      M_A    0.0000
    552 H         104.4846   85.3757   81.3491 H        78      M_A    0.0000
    553 H         105.8084   84.3230   81.8283 H        78      M_A    0.0000
    554 C         107.2179   85.8952   80.7568 C.3      79      M_A    0.0000
    555 C         108.1931   84.8540   81.2981 C.3      79      M_A    0.0000
    556 O         109.4954   85.0548   80.7489 O.3      79      M_A    0.0000
    557 H         106.8069   86.4666   81.5970 H        79      M_A    0.0000
    558 H         107.7241   86.6026   80.0913 H        79      M_A    0.0000
    559 H         108.2130   84.8877   82.3969 H        79      M_A    0.0000
    560 H         107.8749   83.8397   81.0267 H        79      M_A    0.0000
    561 C         109.9930   86.3415   81.0549 C.3      80      M_A    0.0000
    562 C         111.5008   86.3332   81.2888 C.3      80      M_A    0.0000
    563 O         112.1739   87.0283   80.2392 O.3      80      M_A    0.0000
    564 H         109.4945   86.6873   81.9676 H        80      M_A    0.0000
    565 H         109.7219   87.0307   80.2480 H        80      M_A    0.0000
    566 H         111.7348   86.7685   82.2710 H        80      M_A    0.0000
    567 H         111.8898   85.3075   81.3059 H        80      M_A    0.0000
    568 C         113.5577   86.7421   80.2337 C.3      81      M_A    0.0000
    569 C         114.3887   87.9339   79.7678 C.3      81      M_A    0.0000
    570 O         115.5504   88.0837   80.5837 O.3      81      M_A    0.0000
    571 H         113.7256   85.9033   79.5486 H        81      M_A    0.0000
    572 H         113.8594   86.4172   81.2352 H        81      M_A    0.0000
    573 H         114.6567   87.8185   78.7077 H        81      M_A    0.0000
    574 H         113.8139   88.8657   79.8405 H        81      M_A    0.0000
    575 C         116.0928   89.3842   80.4777 C.3      82      M_A    0.0000
    576 C         117.4667   89.3810   79.8139 C.3      82      M_A    0.0000
    577 O         117.4343   90.1194   78.5927 O.3      82      M_A    0.0000
    578 H         116.1892   89.7928   81.4902 H        82      M_A    0.0000
    579 H         115.3903   90.0208   79.9292 H        82      M_A    0.0000
    580 H         118.2226   89.7826   80.5041 H        82      M_A    0.0000
    581 H         117.7832   88.3588   79.5715 H        82      M_A    0.0000
    582 C         118.6575   90.7875   78.3595 C.3      83      M_A    0.0000
    583 C         118.4579   92.1127   77.6300 C.3      83      M_A    0.0000
    584 O         119.2613   93.1347   78.2200 O.3      83      M_A    0.0000
    585 H         119.2859   90.1346   77.7431 H        83      M_A    0.0000
    586 H         119.1714   90.9359   79.3152 H        83      M_A    0.0000
    587 H         118.6830   91.9947   76.5603 H        83      M_A    0.0000
    588 H         117.4126   92.4406   77.6905 H        83      M_A    0.0000
    589 C         120.2254   93.6244   77.3102 C.3      84      M_A    0.0000
    590 C         121.3019   94.4528   78.0052 C.3      84      M_A    0.0000
    591 O         122.5926   93.8857   77.7807 O.3      84      M_A    0.0000
    592 H         119.7085   94.2564   76.5792 H        84      M_A    0.0000
    593 H         120.6648   92.7810   76.7669 H        84      M_A    0.0000
    594 H         121.2584   95.4964   77.6618 H        84      M_A    0.0000
    595 H         121.1385   94.4783   79.0898 H        84      M_A    0.0000
    596 C         123.5435   94.3842   78.6995 C.3      85      M_A    0.0000
    597 C         124.9525   94.4029   78.1141 C.3      85      M_A    0.0000
    598 O         125.5119   95.7136   78.1981 O.3      85      M_A    0.0000
    599 H         123.5343   93.7327   79.5808 H        85      M_A    0.0000
    600 H         123.2369   95.3844   79.0238 H        85      M_A    0.0000
    601 H         125.5859   93.6642   78.6260 H        85      M_A    0.0000
    602 H         124.9413   94.1178   77.0547 H        85      M_A    0.0000
    603 C         126.7367   95.7989   77.4984 C.3      86      M_A    0.0000
    604 C         127.9076   96.1093   78.4262 C.3      86      M_A    0.0000
    605 O         129.0206   95.2671   78.1264 O.3      86      M_A    0.0000
    606 H         126.6472   96.6032   76.7592 H        86      M_A    0.0000
    607 H         126.9021   94.8641   76.9522 H        86      M_A    0.0000
    608 H         128.1790   97.1722   78.3522 H        86      M_A    0.0000
    609 H         127.6353   95.9331   79.4743 H        86      M_A    0.0000
    610 C         129.7610   95.7599   77.0282 C.3      87      M_A    0.0000
    611 C         130.5611   94.6607   76.3357 C.3      87      M_A    0.0000
    612 O         130.2446   94.6120   74.9445 O.3      87      M_A    0.0000
    613 H         130.4549   96.5206   77.4038 H        87      M_A    0.0000
    614 H         129.0773   96.2520   76.3282 H        87      M_A    0.0000
    615 H         131.6377   94.8169   76.4955 H        87      M_A    0.0000
    616 H         130.3261   93.6769   76.7607 H        87      M_A    0.0000
    617 C         131.2227   93.8982   74.2162 C.3      88      M_A    0.0000
    618 C         130.9610   93.9362   72.7134 C.3      88      M_A    0.0000
    619 O         132.0242   94.6070   72.0371 O.3      88      M_A    0.0000
    620 H         131.2001   92.8557   74.5537 H        88      M_A    0.0000
    621 H         132.2121   94.3024   74.4555 H        88      M_A    0.0000
    622 H         130.8214   92.9165   72.3266 H        88      M_A    0.0000
    623 H         130.0347   94.4801   72.4900 H        88      M_A    0.0000
    624 C         131.9028   94.4858   70.6344 C.3      89      M_A    0.0000
    625 C         130.5848   95.0577   70.1206 C.3      89      M_A    0.0000
    626 O         130.8141   96.2568   69.3807 O.3      89      M_A    0.0000
    627 H         131.9488   93.4200   70.3831 H        89      M_A    0.0000
    628 H         132.7587   94.9757   70.1580 H        89      M_A    0.0000
    629 H         130.0568   94.3082   69.5138 H        89      M_A    0.0000
    630 H         129.9147   95.3081   70.9525 H        89      M_A    0.0000
    631 C         131.9088   96.9838   69.9004 C.3      90      M_A    0.0000
    632 C         132.8721   97.4322   68.8053 C.3      90      M_A    0.0000
    633 O         133.4084   98.7202   69.1071 O.3      90      M_A    0.0000
    634 H         132.4452   96.3317   70.5992 H        90      M_A    0.0000
    635 H         131.5313   97.8399   70.4697 H        90      M_A    0.0000
    636 H         133.6702   96.6875   68.6737 H        90      M_A    0.0000
    637 H         132.3592   97.5082   67.8383 H        90      M_A    0.0000
    638 C         134.0959   99.2666   68.0000 C.3      91      M_A    0.0000
    639 C         135.2528  100.1643   68.4286 C.3      91      M_A    0.0000
    640 O         136.2602  100.1994   67.4177 O.3      91      M_A    0.0000
    641 H         133.3814   99.8618   67.4199 H        91      M_A    0.0000
    642 H         134.4454   98.4508   67.3582 H        91      M_A    0.0000
    643 H         134.8840  101.1738   68.6608 H        91      M_A    0.0000
    644 H         135.7217   99.7889   69.3468 H        91      M_A    0.0000
    645 C         136.9479   98.9681   67.3300 C.3      92      M_A    0.0000
    646 C         137.9913   98.9712   66.2166 C.3      92      M_A    0.0000
    647 O         139.2156   99.5407   66.6797 O.3      92      M_A    0.0000
    648 H         136.2105   98.1842   67.1226 H        92      M_A    0.0000
    649 H         137.4053   98.7443   68.2996 H        92      M_A    0.0000
    650 H         138.1435   97.9509   65.8362 H        92      M_A    0.0000
    651 H         137.6523   99.5710   65.3627 H        92      M_A    0.0000
    652 C         138.9843  100.6699   67.4972 C.3      93      M_A    0.0000
    653 C         139.5198  101.9530   66.8690 C.3      93      M_A    0.0000
    654 O         138.4678  102.6721   66.2254 O.3      93      M_A    0.0000
    655 H         139.4937  100.5038   68.4533 H        93      M_A    0.0000
    656 H         137.9114  100.7483   67.7029 H        93      M_A    0.0000
    657 H         140.0178  102.5696   67.6311 H        93      M_A    0.0000
    658 H         140.2789  101.7307   66.1085 H        93      M_A    0.0000
    659 C         137.2224  102.4358   66.8499 C.3      94      M_A    0.0000
    660 C         136.1545  103.4255   66.3937 C.3      94      M_A    0.0000
    661 O         135.8929  104.3863   67.4166 O.3      94      M_A    0.0000
    662 H         137.3630  102.5396   67.9319 H        94      M_A    0.0000
    663 H         136.9144  101.4034   66.6534 H        94      M_A    0.0000
    664 H         136.4632  103.9122   65.4574 H        94      M_A    0.0000
    665 H         135.2098  102.9114   66.1767 H        94      M_A    0.0000
    666 C         137.0551  104.6707   68.1685 C.3      95      M_A    0.0000
    667 C         138.2958  104.7829   67.2874 C.3      95      M_A    0.0000
    668 O         138.5182  106.1407   66.9070 O.3      95      M_A    0.0000
    669 H         137.2015  103.8539   68.8845 H        95      M_A    0.0000
    670 H         136.8935  105.5893   68.7425 H        95      M_A    0.0000
    671 H         139.1697  104.3651   67.8075 H        95      M_A    0.0000
    672 H         138.1772  104.1989   66.3662 H        95      M_A    0.0000
    673 C         139.8978  106.4312   66.8097 C.3      96      M_A    0.0000
    674 C         140.6614  105.3454   66.0572 C.3      96      M_A    0.0000
    675 O         140.5590  105.5469   64.6477 O.3      96      M_A    0.0000
    676 H         140.2989  106.5066   67.8269 H        96      M_A    0.0000
    677 H         140.0244  107.4078   66.3305 H        96      M_A    0.0000
    678 H         141.7114  105.3249   66.3830 H        96      M_A    0.0000
    679 H         140.2509  104.3522   66.2778 H        96      M_A    0.0000
    680 C         139.5003  104.7929   64.0931 C.3      97      M_A    0.0000
    681 C         138.9471  105.4292   62.8214 C.3      97      M_A    0.0000
    682 O         139.4365  104.7471   61.6668 O.3      97      M_A    0.0000
    683 H         138.6992  104.7373   64.8391 H        97      M_A    0.0000
    684 H         139.8490  103.7719   63.9049 H        97      M_A    0.0000
    685 H         137.8478  105.4343   62.8468 H        97      M_A    0.0000
    686 H         139.2582  106.4781   62.7398 H        97      M_A    0.0000
    687 C         140.3976  105.5206   60.9777 C.3      98      M_A    0.0000
    688 C         141.5472  105.9491   61.8849 C.3      98      M_A    0.0000
    689 O         142.5454  106.6411   61.1348 O.3      98      M_A    0.0000
    690 H         139.8965  106.4164   60.5932 H        98      M_A    0.0000
    691 H         140.7643  104.9511   60.1171 H        98      M_A    0.0000
    692 H         141.1682  106.5671   62.7116 H        98      M_A    0.0000
    693 H         142.0284  105.0781   62.3469 H        98      M_A    0.0000
    694 C         142.5309  108.0271   61.4097 C.3      99      M_A    0.0000
    695 C         142.4095  108.8632   60.1392 C.3      99      M_A    0.0000
    696 O         141.8448  110.1410   60.4329 O.3      99      M_A    0.0000
    697 H         143.4711  108.2808   61.9127 H        99      M_A    0.0000
    698 H         141.7137  108.2448   62.1057 H        99      M_A    0.0000
    699 H         143.3916  108.9619   59.6546 H        99      M_A    0.0000
    700 H         141.7533  108.3741   59.4085 H        99      M_A    0.0000
    701 C         142.1908  111.0973   59.4518 C.3     100      M_A    0.0000
    702 C         141.9085  112.5233   59.9153 C.3     100      M_A    0.0000
    703 O         142.9545  113.4012   59.4991 O.3     100      M_A    0.0000
    704 H         141.5947  110.8913   58.5554 H       100      M_A    0.0000
    705 H         143.2453  110.9699   59.1848 H       100      M_A    0.0000
    706 H         140.9315  112.8585   59.5384 H       100      M_A    0.0000
    707 H         141.8512  112.5763   61.0097 H       100      M_A    0.0000
    708 C         142.8098  114.6855   60.0703 C.3     101      M_A    0.0000
    709 C         143.5134  115.7618   59.2490 C.3     101      M_A    0.0000
    710 O         142.5663  116.6977   58.7342 O.3     101      M_A    0.0000
    711 H         143.2509  114.6599   61.0733 H       101      M_A    0.0000
    712 H         141.7434  114.9084   60.1831 H       101      M_A    0.0000
    713 H         144.2804  116.2626   59.8572 H       101      M_A    0.0000
    714 H         144.0388  115.3212   58.3924 H       101      M_A    0.0000
    715 C         143.1840  117.9199   58.3854 C.3     102      M_A    0.0000
    716 C         142.6948  118.4469   57.0397 C.3     102      M_A    0.0000
    717 O         142.6520  119.8738   57.0466 O.3     102      M_A    0.0000
    718 H         144.2647  117.7466   58.3267 H       102      M_A    0.0000
    719 H         143.0084  118.6495   59.1832 H       102      M_A    0.0000
    720 H         143.3350  118.0700   56.2290 H       102      M_A    0.0000
    721 H         141.6806  118.0889   56.8230 H       102      M_A    0.0000
    722 C         143.6633  120.4176   57.8702 C.3     103      M_A    0.0000
    723 C         144.8321  120.9668   57.0574 C.3     103      M_A    0.0000
    724 O         144.5730  122.3114   56.6540 O.3     103      M_A    0.0000
    725 H         144.0308  119.6188   58.5245 H       103      M_A    0.0000
    726 H         143.2262  121.1933   58.5079 H       103      M_A    0.0000
    727 H         145.7639  120.8957   57.6368 H       103      M_A    0.0000
    728 H         144.9895  120.3752   56.1470 H       103      M_A    0.0000
    729 C         144.9088  122.5180   55.2970 C.3     104      M_A    0.0000
    730 C         144.0769  123.6285   54.6623 C.3     104      M_A    0.0000
    731 O         144.8473  124.3398   53.6936 O.3     104      M_A    0.0000
    732 H         144.7221  121.5825   54.7574 H       104      M_A    0.0000
    733 H         145.9798  122.7349   55.2229 H       104      M_A    0.0000
    734 H         143.1624  123.2104   54.2173 H       104      M_A    0.0000
    735 H         143.7483  124.3534   55.4174 H       104      M_A    0.0000
    736 C         144.0834  124.6382   52.5429 C.3     105      M_A    0.0000
    737 C         144.9610  125.0160   51.3532 C.3     105      M_A    0.0000
    738 O         144.6198  124.2313   50.2105 O.3     105      M_A    0.0000
    739 H         143.4286  125.4837   52.7831 H       105      M_A    0.0000
    740 H         143.4441  123.7810   52.3062 H       105      M_A    0.0000
    741 H         144.8708  126.0911   51.1414 H       105      M_A    0.0000
    742 H         146.0202  124.8330   51.5730 H       105      M_A    0.0000
    743 C         144.9064  124.9165   49.0083 C.3     106      M_A    0.0000
    744 C         146.2267  125.6778   49.0821 C.3     106      M_A    0.0000
    745 O         146.9277  125.5854   47.8420 O.3     106      M_A    0.0000
    746 H         144.0952  125.6305   48.8257 H       106      M_A    0.0000
    747 H         144.9093  124.1996   48.1804 H       106      M_A    0.0000
    748 H         146.0455  126.7256   49.3619 H       106      M_A    0.0000
    749 H         146.8781  125.2596   49.8596 H       106      M_A    0.0000
    750 C         146.1611  126.1049   46.7746 C.3     107      M_A    0.0000
    751 C         146.8557  127.2757   46.0855 C.3     107      M_A    0.0000
    752 O         147.8008  126.8026   45.1260 O.3     107      M_A    0.0000
    753 H         145.2048  126.4508   47.1835 H       107      M_A    0.0000
    754 H         145.9456  125.2996   46.0643 H       107      M_A    0.0000
    755 H         146.1114  127.9382   45.6207 H       107      M_A    0.0000
    756 H         147.4037  127.8894   46.8114 H       107      M_A    0.0000
    757 C         149.1282  126.9747   45.5790 C.3     108      M_A    0.0000
    758 C         150.1152  126.1016   44.8099 C.3     108      M_A    0.0000
    759 O         151.0910  126.9096   44.1520 O.3     108      M_A    0.0000
    760 H         149.1611  126.6977   46.6390 H       108      M_A    0.0000
    761 H         149.3965  128.0340   45.5050 H       108      M_A    0.0000
    762 H         150.5878  125.3759   45.4873 H       108      M_A    0.0000
    763 H         149.6014  125.5139   44.0389 H       108      M_A    0.0000
    764 C         151.5180  126.3211   42.9403 C.3     109      M_A    0.0000
    765 C         152.4729  127.2263   42.1677 C.3     109      M_A    0.0000
    766 O         153.7126  126.5594   41.9302 O.3     109      M_A    0.0000
    767 H         150.6304  126.1347   42.3251 H       109      M_A    0.0000
    768 H         151.9802  125.3522   43.1571 H       109      M_A    0.0000
    769 H         152.0079  127.5531   41.2265 H       109      M_A    0.0000
    770 H         152.6943  128.1389   42.7351 H       109      M_A    0.0000
    771 C         154.4764  127.2235   40.9441 C.3     110      M_A    0.0000
    772 C         154.5989  128.7186   41.2231 C.3     110      M_A    0.0000
    773 O         155.8574  129.2119   40.7639 O.3     110      M_A    0.0000
    774 H         153.9763  127.0827   39.9790 H       110      M_A    0.0000
    775 H         155.4626  126.7516   40.8781 H       110      M_A    0.0000
    776 H         153.7631  129.2611   40.7583 H       110      M_A    0.0000
    777 H         154.5387  128.9234   42.2993 H       110      M_A    0.0000
    778 C         156.6078  128.1994   40.1246 C.3     111      M_A    0.0000
    779 C         156.2955  128.1079   38.6339 C.3     111      M_A    0.0000
    780 O         157.4177  127.5919   37.9182 O.3     111      M_A    0.0000
    781 H         156.3567  127.2437   40.5988 H       111      M_A    0.0000
    782 H         157.6739  128.3835   40.2946 H       111      M_A    0.0000
    783 H         155.3996  127.4917   38.4710 H       111      M_A    0.0000
    784 H         156.0681  129.0978   38.2189 H       111      M_A    0.0000
    785 C         157.0512  127.1590   36.6240 C.3     112      M_A    0.0000
    786 C         157.2689  125.6605   36.4367 C.3     112      M_A    0.0000
    787 O         156.2812  125.1168   35.5612 O.3     112      M_A    0.0000
    788 H         157.6704  127.7005   35.8996 H       112      M_A    0.0000
    789 H         156.0074  127.4332   36.4377 H       112      M_A    0.0000
    790 H         158.2846  125.4684   36.0621 H       112      M_A    0.0000
    791 H         157.1879  125.1294   37.3934 H       112      M_A    0.0000
    792 C         155.4530  126.1281   35.0242 C.3     113      M_A    0.0000
    793 C         155.0798  125.8529   33.5705 C.3     113      M_A    0.0000
    794 O         153.6645  125.9188   33.3961 O.3     113      M_A    0.0000
    795 H         156.0015  127.0757   35.0761 H       113      M_A    0.0000
    796 H         154.5595  126.2280   35.6496 H       113      M_A    0.0000
    797 H         155.5979  126.5587   32.9055 H       113      M_A    0.0000
    798 H         155.4019  124.8493   33.2658 H       113      M_A    0.0000
    799 C         153.3135  125.9655   32.0281 C.3     114      M_A    0.0000
    800 C         153.9452  124.8258   31.2342 C.3     114      M_A    0.0000
    801 O         152.9708  124.1942   30.4038 O.3     114      M_A    0.0000
    802 H         153.6679  126.9197   31.6217 H       114      M_A    0.0000
    803 H         152.2221  125.9522   31.9385 H       114      M_A    0.0000
    804 H         154.7929  125.1999   30.6422 H       114      M_A    0.0000
    805 H         154.3524  124.0587   31.9047 H       114      M_A    0.0000
    806 C         152.1441  125.1438   29.7623 C.3     115      M_A    0.0000
    807 C         151.7903  124.7277   28.3376 C.3     115      M_A    0.0000
    808 O         150.5990  123.9412   28.3272 O.3     115      M_A    0.0000
    809 H         152.6869  126.0954   29.7293 H       115      M_A    0.0000
    810 H         151.2424  125.2976   30.3647 H       115      M_A    0.0000
    811 H         151.6889  125.6156   27.6970 H       115      M_A    0.0000
    812 H         152.5896  124.1192   27.8964 H       115      M_A    0.0000
    813 C         150.0516  123.8489   27.0277 C.3     116      M_A    0.0000
    814 C         150.9014  122.9779   26.1072 C.3     116      M_A    0.0000
    815 O         150.2216  121.7601   25.8024 O.3     116      M_A    0.0000
    816 H         150.0009  124.8612   26.6107 H       116      M_A    0.0000
    817 H         149.0271  123.4679   27.0977 H       116      M_A    0.0000
    818 H         151.1598  123.5313   25.1930 H       116      M_A    0.0000
    819 H         151.8524  122.7123   26.5857 H       116      M_A    0.0000
    820 C         150.9325  120.9955   24.8500 C.3     117      M_A    0.0000
    821 C         152.3111  120.5835   25.3579 C.3     117      M_A    0.0000
    822 O         152.8204  119.4913   24.5927 O.3     117      M_A    0.0000
    823 H         151.0549  121.6081   23.9495 H       117      M_A    0.0000
    824 H         150.3342  120.1199   24.5762 H       117      M_A    0.0000
    825 H         152.9967  121.4427   25.3339 H       117      M_A    0.0000
    826 H         152.2626  120.2572   26.4043 H       117      M_A    0.0000
    827 C         152.8300  119.7876   23.2111 C.3     118      M_A    0.0000
    828 C         153.5269  118.7023   22.3959 C.3     118      M_A    0.0000
    829 O         152.6782  118.2442   21.3434 O.3     118      M_A    0.0000
    830 H         153.3658  120.7338   23.0731 H       118      M_A    0.0000
    831 H         151.7999  119.9376   22.8706 H       118      M_A    0.0000
    832 H         154.4833  119.0773   22.0039 H       118      M_A    0.0000
    833 H         153.7698  117.8353   23.0229 H       118      M_A    0.0000
    834 C         153.3413  118.2705   20.0958 C.3     119      M_A    0.0000
    835 C         154.6276  117.4499   20.1119 C.3     119      M_A    0.0000
    836 O         154.9064  116.9308   18.8116 O.3     119      M_A    0.0000
    837 H         153.5890  119.3135   19.8676 H       119      M_A    0.0000
    838 H         152.6556  117.9154   19.3191 H       119      M_A    0.0000
    839 H         155.4623  118.0599   20.4863 H       119      M_A    0.0000
    840 H         154.5398  116.5956   20.7948 H       119      M_A    0.0000
    841 C         155.8743  117.7109   18.1398 C.3     120      M_A    0.0000
    842 C         156.5453  116.9417   17.0056 C.3     120      M_A    0.0000
    843 O         157.0881  117.8439   16.0416 O.3     120      M_A    0.0000
    844 H         156.6375  118.0033   18.8701 H       120      M_A    0.0000
    845 H         155.4012  118.6270   17.7704 H       120      M_A    0.0000
    846 H         157.3195  116.2722   17.4072 H       120      M_A    0.0000
    847 H         155.8231  116.3004   16.4852 H       120      M_A    0.0000
    848 C         157.5114  119.0504   16.6433 C.3     121      M_A    0.0000
    849 C         159.0316  119.1437   16.7350 C.3     121      M_A    0.0000
    850 O         159.5556  119.8782   15.6286 O.3     121      M_A    0.0000
    851 H         157.0922  119.0876   17.6553 H       121      M_A    0.0000
    852 H         157.0968  119.8945   16.0818 H       121      M_A    0.0000
    853 H         159.3270  119.5975   17.6920 H       121      M_A    0.0000
    854 H         159.4882  118.1463   16.7130 H       121      M_A    0.0000
    855 C         160.7469  119.2965   15.1394 C.3     122      M_A    0.0000
    856 C         161.5045  120.2374   14.2072 C.3     122      M_A    0.0000
    857 O         162.8872  119.8858   14.1569 O.3     122      M_A    0.0000
    858 H         160.4766  118.3903   14.5853 H       122      M_A    0.0000
    859 H         161.3706  118.9929   15.9869 H       122      M_A    0.0000
    860 H         161.0519  120.2246   13.2053 H       122      M_A    0.0000
    861 H         161.4418  121.2743   14.5603 H       122      M_A    0.0000
    862 C         163.0688  118.4872   14.2448 C.3     123      M_A    0.0000
    863 C         164.1785  117.9932   13.3214 C.3     123      M_A    0.0000
    864 O         165.0041  117.0431   13.9949 O.3     123      M_A    0.0000
    865 H         162.1271  118.0063   13.9562 H       123      M_A    0.0000
    866 H         163.2724  118.2181   15.2867 H       123      M_A    0.0000
    867 H         163.7473  117.5685   12.4034 H       123      M_A    0.0000
    868 H         164.8233  118.8222   13.0040 H       123      M_A    0.0000
    869 C         166.2058  116.8099   13.2890 C.3     124      M_A    0.0000
    870 C         167.0564  115.7266   13.9456 C.3     124      M_A    0.0000
    871 O         167.6068  114.8552   12.9580 O.3     124      M_A    0.0000
    872 H         166.7747  117.7465   13.2734 H       124      M_A    0.0000
    873 H         165.9666  116.5503   12.2522 H       124      M_A    0.0000
    874 H         167.8454  116.1840   14.5598 H       124      M_A    0.0000
    875 H         166.4534  115.1126   14.6261 H       124      M_A    0.0000
    876 C         167.7572  113.5406   13.4542 C.3     125      M_A    0.0000
    877 C         168.6379  112.6830   12.5502 C.3     125      M_A    0.0000
    878 O         169.9472  112.5534   13.1041 O.3     125      M_A    0.0000
    879 H         166.7613  113.0867   13.5130 H       125      M_A    0.0000
    880 H         168.1609  113.5865   14.4712 H       125      M_A    0.0000
    881 H         168.1727  111.6998   12.3892 H       125      M_A    0.0000
    882 H         168.7445  113.1395   11.5583 H       125      M_A    0.0000
    883 C         170.5612  111.3455   12.7029 C.3     126      M_A    0.0000
    884 C         171.5538  111.5568   11.5635 C.3     126      M_A    0.0000
    885 O         172.7737  110.8640   11.8274 O.3     126      M_A    0.0000
    886 H         169.7732  110.6630   12.3646 H       126      M_A    0.0000
    887 H         171.0472  110.8863   13.5704 H       126      M_A    0.0000
    888 H         171.1104  111.2366   10.6096 H       126      M_A    0.0000
    889 H         171.7983  112.6202   11.4479 H       126      M_A    0.0000
    890 C         172.9761  109.8062   10.9126 C.3     127      M_A    0.0000
    891 C         174.4569  109.5541   10.6449 C.3     127      M_A    0.0000
    892 O         174.7134  108.1545   10.5292 O.3     127      M_A    0.0000
    893 H         172.4865  110.0773    9.9702 H       127      M_A    0.0000
    894 H         172.4843  108.9049   11.2940 H       127      M_A    0.0000
    895 H         174.7770  110.0952    9.7429 H       127      M_A    0.0000
    896 H         175.0750  109.9344   11.4678 H       127      M_A    0.0000
    897 C         175.6942  107.8879    9.5474 C.3     128      M_A    0.0000
    898 C         176.8788  107.1117   10.1152 C.3     128      M_A    0.0000
    899 O         177.2728  106.0732    9.2184 O.3     128      M_A    0.0000
    900 H         176.0528  108.8484    9.1597 H       128      M_A    0.0000
    901 H         175.2297  107.3477    8.7157 H       128      M_A    0.0000
    902 H         177.7137  107.7949   10.3273 H       128      M_A    0.0000
    903 H         176.6171  106.6392   11.0702 H       128      M_A    0.0000
    904 C         178.5965  105.6473    9.4698 C.3     129      M_A    0.0000
    905 C         179.0724  104.6185    8.4484 C.3     129      M_A    0.0000
    906 O         180.4226  104.8804    8.0661 O.3     129      M_A    0.0000
    907 H         178.6208  105.1940   10.4674 H       129      M_A    0.0000
    908 H         179.2560  106.5215    9.4871 H       129      M_A    0.0000
    909 H         178.9613  103.6023    8.8533 H       129      M_A    0.0000
    910 H         178.4601  104.6562    7.5387 H       129      M_A    0.0000
    911 C         180.8965  103.9162    7.1481 C.3     130      M_A    0.0000
    912 C         182.4112  103.9825    6.9767 C.3     130      M_A    0.0000
    913 O         183.0209  102.7792    7.4439 O.3     130      M_A    0.0000
    914 H         180.4212  104.1106    6.1798 H       130      M_A    0.0000
    915 H         180.5793  102.9215    7.4790 H       130      M_A    0.0000
    916 H         182.6659  104.1776    5.9250 H       130      M_A    0.0000
    917 H         182.8359  104.8122    7.5555 H       130      M_A    0.0000
    918 C         184.3129  103.0216    7.9625 C.3     131      M_A    0.0000
    919 C         185.4091  102.4856    7.0465 C.3     131      M_A    0.0000
    920 O         186.4690  103.4342    6.9263 O.3     131      M_A    0.0000
    921 H         184.3857  102.5194    8.9340 H       131      M_A    0.0000
    922 H         184.4327  104.0964    8.1355 H       131      M_A    0.0000
    923 H         185.7775  101.5195    7.4205 H       131      M_A    0.0000
    924 H         185.0206  102.2975    6.0378 H       131      M_A    0.0000
    925 C         187.7265  102.8388    7.1738 C.3     132      M_A    0.0000
    926 C         188.8468  103.5167    6.3905 C.3     132      M_A    0.0000
    927 O         189.9654  103.7749    7.2390 O.3     132      M_A    0.0000
    928 H         187.6672  101.7875    6.8698 H       132      M_A    0.0000
    929 H         187.9270  102.8616    8.2502 H       132      M_A    0.0000
    930 H         189.1338  102.8991    5.5273 H       132      M_A    0.0000
    931 H         188.5141  104.4797    5.9833 H       132      M_A    0.0000
    932 C         190.9376  104.5662    6.5866 C.3     133      M_A    0.0000
    933 C         192.2598  103.8245    6.4137 C.3     133      M_A    0.0000
    934 O         193.0540  104.4463    5.4035 O.3     133      M_A    0.0000
    935 H         191.1097  105.4600    7.1972 H       133      M_A    0.0000
    936 H         190.5403  104.8963    5.6209 H       133      M_A    0.0000
    937 H         192.7967  103.7776    7.3720 H       133      M_A    0.0000
    938 H         192.0896  102.7856    6.1046 H       133      M_A    0.0000
    939 C         192.3665  105.5190    4.7923 C.3     134      M_A    0.0000
    940 C         191.1835  105.9946    5.6304 C.3     134      M_A    0.0000
    941 O         190.7406  107.2777    5.1882 O.3     134      M_A    0.0000
    942 H         191.9962  105.1721    3.8209 H       134      M_A    0.0000
    943 H         193.0721  106.3355    4.6053 H       134      M_A    0.0000
    944 H         190.3700  105.2558    5.5923 H       134      M_A    0.0000
    945 H         191.4638  106.0900    6.6868 H       134      M_A    0.0000
    946 H         190.0199  107.2007    4.5286 H       134      M_A    0.0000
    947 H          57.4236  167.8001    9.1862 H         0      M_A    0.0000
@<TRIPOS>BOND
     1     1     2      1
     2     1     4      1
     3     1     5      1
     4     1   947      1
     5     2     3      1
     6     2     6      1
     7     2     7      1
     8     3     8      1
     9     8     9      1
    10     8    11      1
    11     8    12      1
    12     9    10      1
    13     9    13      1
    14     9    14      1
    15    10    15      1
    16    15    16      1
    17    15    18      1
    18    15    19      1
    19    16    17      1
    20    16    20      1
    21    16    21      1
    22    17    22      1
    23    22    23      1
    24    22    25      1
    25    22    26      1
    26    23    24      1
    27    23    27      1
    28    23    28      1
    29    24    29      1
    30    29    30      1
    31    29    32      1
    32    29    33      1
    33    30    31      1
    34    30    34      1
    35    30    35      1
    36    31    36      1
    37    36    37      1
    38    36    39      1
    39    36    40      1
    40    37    38      1
    41    37    41      1
    42    37    42      1
    43    38    43      1
    44    43    44      1
    45    43    46      1
    46    43    47      1
    47    44    45      1
    48    44    48      1
    49    44    49      1
    50    45    50      1
    51    50    51      1
    52    50    53      1
    53    50    54      1
    54    51    52      1
    55    51    55      1
    56    51    56      1
    57    52    57      1
    58    57    58      1
    59    57    60      1
    60    57    61      1
    61    58    59      1
    62    58    62      1
    63    58    63      1
    64    59    64      1
    65    64    65      1
    66    64    67      1
    67    64    68      1
    68    65    66      1
    69    65    69      1
    70    65    70      1
    71    66    71      1
    72    71    72      1
    73    71    74      1
    74    71    75      1
    75    72    73      1
    76    72    76      1
    77    72    77      1
    78    73    78      1
    79    78    79      1
    80    78    81      1
    81    78    82      1
    82    79    80      1
    83    79    83      1
    84    79    84      1
    85    80    85      1
    86    85    86      1
    87    85    88      1
    88    85    89      1
    89    86    87      1
    90    86    90      1
    91    86    91      1
    92    87    92      1
    93    92    93      1
    94    92    95      1
    95    92    96      1
    96    93    94      1
    97    93    97      1
    98    93    98      1
    99    94    99      1
   100    99   100      1
   101    99   102      1
   102    99   103      1
   103   100   101      1
   104   100   104      1
   105   100   105      1
   106   101   106      1
   107   106   107      1
   108   106   109      1
   109   106   110      1
   110   107   108      1
   111   107   111      1
   112   107   112      1
   113   108   113      1
   114   113   114      1
   115   113   116      1
   116   113   117      1
   117   114   115      1
   118   114   118      1
   119   114   119      1
   120   115   120      1
   121   120   121      1
   122   120   123      1
   123   120   124      1
   124   121   122      1
   125   121   125      1
   126   121   126      1
   127   122   127      1
   128   127   128      1
   129   127   130      1
   130   127   131      1
   131   128   129      1
   132   128   132      1
   133   128   133      1
   134   129   134      1
   135   134   135      1
   136   134   137      1
   137   134   138      1
   138   135   136      1
   139   135   139      1
   140   135   140      1
   141   136   141      1
   142   141   142      1
   143   141   144      1
   144   141   145      1
   145   142   143      1
   146   142   146      1
   147   142   147      1
   148   143   148      1
   149   148   149      1
   150   148   151      1
   151   148   152      1
   152   149   150      1
   153   149   153      1
   154   149   154      1
   155   150   155      1
   156   155   156      1
   157   155   158      1
   158   155   159      1
   159   156   157      1
   160   156   160      1
   161   156   161      1
   162   157   162      1
   163   162   163      1
   164   162   165      1
   165   162   166      1
   166   163   164      1
   167   163   167      1
   168   163   168      1
   169   164   169      1
   170   169   170      1
   171   169   172      1
   172   169   173      1
   173   170   171      1
   174   170   174      1
   175   170   175      1
   176   171   176      1
   177   176   177      1
   178   176   179      1
   179   176   180      1
   180   177   178      1
   181   177   181      1
   182   177   182      1
   183   178   183      1
   184   183   184      1
   185   183   186      1
   186   183   187      1
   187   184   185      1
   188   184   188      1
   189   184   189      1
   190   185   190      1
   191   190   191      1
   192   190   193      1
   193   190   194      1
   194   191   192      1
   195   191   195      1
   196   191   196      1
   197   192   197      1
   198   197   198      1
   199   197   200      1
   200   197   201      1
   201   198   199      1
   202   198   202      1
   203   198   203      1
   204   199   204      1
   205   204   205      1
   206   204   207      1
   207   204   208      1
   208   205   206      1
   209   205   209      1
   210   205   210      1
   211   206   211      1
   212   211   212      1
   213   211   214      1
   214   211   215      1
   215   212   213      1
   216   212   216      1
   217   212   217      1
   218   213   218      1
   219   218   219      1
   220   218   221      1
   221   218   222      1
   222   219   220      1
   223   219   223      1
   224   219   224      1
   225   220   225      1
   226   225   226      1
   227   225   228      1
   228   225   229      1
   229   226   227      1
   230   226   230      1
   231   226   231      1
   232   227   232      1
   233   232   233      1
   234   232   235      1
   235   232   236      1
   236   233   234      1
   237   233   237      1
   238   233   238      1
   239   234   239      1
   240   239   240      1
   241   239   242      1
   242   239   243      1
   243   240   241      1
   244   240   244      1
   245   240   245      1
   246   241   246      1
   247   246   247      1
   248   246   249      1
   249   246   250      1
   250   247   248      1
   251   247   251      1
   252   247   252      1
   253   248   253      1
   254   253   254      1
   255   253   256      1
   256   253   257      1
   257   254   255      1
   258   254   258      1
   259   254   259      1
   260   255   260      1
   261   260   261      1
   262   260   263      1
   263   260   264      1
   264   261   262      1
   265   261   265      1
   266   261   266      1
   267   262   267      1
   268   267   268      1
   269   267   270      1
   270   267   271      1
   271   268   269      1
   272   268   272      1
   273   268   273      1
   274   269   274      1
   275   274   275      1
   276   274   277      1
   277   274   278      1
   278   275   276      1
   279   275   279      1
   280   275   280      1
   281   276   281      1
   282   281   282      1
   283   281   284      1
   284   281   285      1
   285   282   283      1
   286   282   286      1
   287   282   287      1
   288   283   288      1
   289   288   289      1
   290   288   291      1
   291   288   292      1
   292   289   290      1
   293   289   293      1
   294   289   294      1
   295   290   295      1
   296   295   296      1
   297   295   298      1
   298   295   299      1
   299   296   297      1
   300   296   300      1
   301   296   301      1
   302   297   302      1
   303   302   303      1
   304   302   305      1
   305   302   306      1
   306   303   304      1
   307   303   307      1
   308   303   308      1
   309   304   309      1
   310   309   310      1
   311   309   312      1
   312   309   313      1
   313   310   311      1
   314   310   314      1
   315   310   315      1
   316   311   316      1
   317   316   317      1
   318   316   319      1
   319   316   320      1
   320   317   318      1
   321   317   321      1
   322   317   322      1
   323   318   323      1
   324   323   324      1
   325   323   326      1
   326   323   327      1
   327   324   325      1
   328   324   328      1
   329   324   329      1
   330   325   330      1
   331   330   331      1
   332   330   333      1
   333   330   334      1
   334   331   332      1
   335   331   335      1
   336   331   336      1
   337   332   337      1
   338   337   338      1
   339   337   340      1
   340   337   341      1
   341   338   339      1
   342   338   342      1
   343   338   343      1
   344   339   344      1
   345   344   345      1
   346   344   347      1
   347   344   348      1
   348   345   346      1
   349   345   349      1
   350   345   350      1
   351   346   351      1
   352   351   352      1
   353   351   354      1
   354   351   355      1
   355   352   353      1
   356   352   356      1
   357   352   357      1
   358   353   358      1
   359   358   359      1
   360   358   361      1
   361   358   362      1
   362   359   360      1
   363   359   363      1
   364   359   364      1
   365   360   365      1
   366   365   366      1
   367   365   368      1
   368   365   369      1
   369   366   367      1
   370   366   370      1
   371   366   371      1
   372   367   372      1
   373   372   373      1
   374   372   375      1
   375   372   376      1
   376   373   374      1
   377   373   377      1
   378   373   378      1
   379   374   379      1
   380   379   380      1
   381   379   382      1
   382   379   383      1
   383   380   381      1
   384   380   384      1
   385   380   385      1
   386   381   386      1
   387   386   387      1
   388   386   389      1
   389   386   390      1
   390   387   388      1
   391   387   391      1
   392   387   392      1
   393   388   393      1
   394   393   394      1
   395   393   396      1
   396   393   397      1
   397   394   395      1
   398   394   398      1
   399   394   399      1
   400   395   400      1
   401   400   401      1
   402   400   403      1
   403   400   404      1
   404   401   402      1
   405   401   405      1
   406   401   406      1
   407   402   407      1
   408   407   408      1
   409   407   410      1
   410   407   411      1
   411   408   409      1
   412   408   412      1
   413   408   413      1
   414   409   414      1
   415   414   415      1
   416   414   417      1
   417   414   418      1
   418   415   416      1
   419   415   419      1
   420   415   420      1
   421   416   421      1
   422   421   422      1
   423   421   424      1
   424   421   425      1
   425   422   423      1
   426   422   426      1
   427   422   427      1
   428   423   428      1
   429   428   429      1
   430   428   431      1
   431   428   432      1
   432   429   430      1
   433   429   433      1
   434   429   434      1
   435   430   435      1
   436   435   436      1
   437   435   438      1
   438   435   439      1
   439   436   437      1
   440   436   440      1
   441   436   441      1
   442   437   442      1
   443   442   443      1
   444   442   445      1
   445   442   446      1
   446   443   444      1
   447   443   447      1
   448   443   448      1
   449   444   449      1
   450   449   450      1
   451   449   452      1
   452   449   453      1
   453   450   451      1
   454   450   454      1
   455   450   455      1
   456   451   456      1
   457   456   457      1
   458   456   459      1
   459   456   460      1
   460   457   458      1
   461   457   461      1
   462   457   462      1
   463   458   463      1
   464   463   464      1
   465   463   466      1
   466   463   467      1
   467   464   465      1
   468   464   468      1
   469   464   469      1
   470   465   470      1
   471   470   471      1
   472   470   473      1
   473   470   474      1
   474   471   472      1
   475   471   475      1
   476   471   476      1
   477   472   477      1
   478   477   478      1
   479   477   480      1
   480   477   481      1
   481   478   479      1
   482   478   482      1
   483   478   483      1
   484   479   484      1
   485   484   485      1
   486   484   487      1
   487   484   488      1
   488   485   486      1
   489   485   489      1
   490   485   490      1
   491   486   491      1
   492   491   492      1
   493   491   494      1
   494   491   495      1
   495   492   493      1
   496   492   496      1
   497   492   497      1
   498   493   498      1
   499   498   499      1
   500   498   501      1
   501   498   502      1
   502   499   500      1
   503   499   503      1
   504   499   504      1
   505   500   505      1
   506   505   506      1
   507   505   508      1
   508   505   509      1
   509   506   507      1
   510   506   510      1
   511   506   511      1
   512   507   512      1
   513   512   513      1
   514   512   515      1
   515   512   516      1
   516   513   514      1
   517   513   517      1
   518   513   518      1
   519   514   519      1
   520   519   520      1
   521   519   522      1
   522   519   523      1
   523   520   521      1
   524   520   524      1
   525   520   525      1
   526   521   526      1
   527   526   527      1
   528   526   529      1
   529   526   530      1
   530   527   528      1
   531   527   531      1
   532   527   532      1
   533   528   533      1
   534   533   534      1
   535   533   536      1
   536   533   537      1
   537   534   535      1
   538   534   538      1
   539   534   539      1
   540   535   540      1
   541   540   541      1
   542   540   543      1
   543   540   544      1
   544   541   542      1
   545   541   545      1
   546   541   546      1
   547   542   547      1
   548   547   548      1
   549   547   550      1
   550   547   551      1
   551   548   549      1
   552   548   552      1
   553   548   553      1
   554   549   554      1
   555   554   555      1
   556   554   557      1
   557   554   558      1
   558   555   556      1
   559   555   559      1
   560   555   560      1
   561   556   561      1
   562   561   562      1
   563   561   564      1
   564   561   565      1
   565   562   563      1
   566   562   566      1
   567   562   567      1
   568   563   568      1
   569   568   569      1
   570   568   571      1
   571   568   572      1
   572   569   570      1
   573   569   573      1
   574   569   574      1
   575   570   575      1
   576   575   576      1
   577   575   578      1
   578   575   579      1
   579   576   577      1
   580   576   580      1
   581   576   581      1
   582   577   582      1
   583   582   583      1
   584   582   585      1
   585   582   586      1
   586   583   584      1
   587   583   587      1
   588   583   588      1
   589   584   589      1
   590   589   590      1
   591   589   592      1
   592   589   593      1
   593   590   591      1
   594   590   594      1
   595   590   595      1
   596   591   596      1
   597   596   597      1
   598   596   599      1
   599   596   600      1
   600   597   598      1
   601   597   601      1
   602   597   602      1
   603   598   603      1
   604   603   604      1
   605   603   606      1
   606   603   607      1
   607   604   605      1
   608   604   608      1
   609   604   609      1
   610   605   610      1
   611   610   611      1
   612   610   613      1
   613   610   614      1
   614   611   612      1
   615   611   615      1
   616   611   616      1
   617   612   617      1
   618   617   618      1
   619   617   620      1
   620   617   621      1
   621   618   619      1
   622   618   622      1
   623   618   623      1
   624   619   624      1
   625   624   625      1
   626   624   627      1
   627   624   628      1
   628   625   626      1
   629   625   629      1
   630   625   630      1
   631   626   631      1
   632   631   632      1
   633   631   634      1
   634   631   635      1
   635   632   633      1
   636   632   636      1
   637   632   637      1
   638   633   638      1
   639   638   639      1
   640   638   641      1
   641   638   642      1
   642   639   640      1
   643   639   643      1
   644   639   644      1
   645   640   645      1
   646   645   646      1
   647   645   648      1
   648   645   649      1
   649   646   647      1
   650   646   650      1
   651   646   651      1
   652   647   652      1
   653   652   653      1
   654   652   655      1
   655   652   656      1
   656   653   654      1
   657   653   657      1
   658   653   658      1
   659   654   659      1
   660   659   660      1
   661   659   662      1
   662   659   663      1
   663   660   661      1
   664   660   664      1
   665   660   665      1
   666   661   666      1
   667   666   667      1
   668   666   669      1
   669   666   670      1
   670   667   668      1
   671   667   671      1
   672   667   672      1
   673   668   673      1
   674   673   674      1
   675   673   676      1
   676   673   677      1
   677   674   675      1
   678   674   678      1
   679   674   679      1
   680   675   680      1
   681   680   681      1
   682   680   683      1
   683   680   684      1
   684   681   682      1
   685   681   685      1
   686   681   686      1
   687   682   687      1
   688   687   688      1
   689   687   690      1
   690   687   691      1
   691   688   689      1
   692   688   692      1
   693   688   693      1
   694   689   694      1
   695   694   695      1
   696   694   697      1
   697   694   698      1
   698   695   696      1
   699   695   699      1
   700   695   700      1
   701   696   701      1
   702   701   702      1
   703   701   704      1
   704   701   705      1
   705   702   703      1
   706   702   706      1
   707   702   707      1
   708   703   708      1
   709   708   709      1
   710   708   711      1
   711   708   712      1
   712   709   710      1
   713   709   713      1
   714   709   714      1
   715   710   715      1
   716   715   716      1
   717   715   718      1
   718   715   719      1
   719   716   717      1
   720   716   720      1
   721   716   721      1
   722   717   722      1
   723   722   723      1
   724   722   725      1
   725   722   726      1
   726   723   724      1
   727   723   727      1
   728   723   728      1
   729   724   729      1
   730   729   730      1
   731   729   732      1
   732   729   733      1
   733   730   731      1
   734   730   734      1
   735   730   735      1
   736   731   736      1
   737   736   737      1
   738   736   739      1
   739   736   740      1
   740   737   738      1
   741   737   741      1
   742   737   742      1
   743   738   743      1
   744   743   744      1
   745   743   746      1
   746   743   747      1
   747   744   745      1
   748   744   748      1
   749   744   749      1
   750   745   750      1
   751   750   751      1
   752   750   753      1
   753   750   754      1
   754   751   752      1
   755   751   755      1
   756   751   756      1
   757   752   757      1
   758   757   758      1
   759   757   760      1
   760   757   761      1
   761   758   759      1
   762   758   762      1
   763   758   763      1
   764   759   764      1
   765   764   765      1
   766   764   767      1
   767   764   768      1
   768   765   766      1
   769   765   769      1
   770   765   770      1
   771   766   771      1
   772   771   772      1
   773   771   774      1
   774   771   775      1
   775   772   773      1
   776   772   776      1
   777   772   777      1
   778   773   778      1
   779   778   779      1
   780   778   781      1
   781   778   782      1
   782   779   780      1
   783   779   783      1
   784   779   784      1
   785   780   785      1
   786   785   786      1
   787   785   788      1
   788   785   789      1
   789   786   787      1
   790   786   790      1
   791   786   791      1
   792   787   792      1
   793   792   793      1
   794   792   795      1
   795   792   796      1
   796   793   794      1
   797   793   797      1
   798   793   798      1
   799   794   799      1
   800   799   800      1
   801   799   802      1
   802   799   803      1
   803   800   801      1
   804   800   804      1
   805   800   805      1
   806   801   806      1
   807   806   807      1
   808   806   809      1
   809   806   810      1
   810   807   808      1
   811   807   811      1
   812   807   812      1
   813   808   813      1
   814   813   814      1
   815   813   816      1
   816   813   817      1
   817   814   815      1
   818   814   818      1
   819   814   819      1
   820   815   820      1
   821   820   821      1
   822   820   823      1
   823   820   824      1
   824   821   822      1
   825   821   825      1
   826   821   826      1
   827   822   827      1
   828   827   828      1
   829   827   830      1
   830   827   831      1
   831   828   829      1
   832   828   832      1
   833   828   833      1
   834   829   834      1
   835   834   835      1
   836   834   837      1
   837   834   838      1
   838   835   836      1
   839   835   839      1
   840   835   840      1
   841   836   841      1
   842   841   842      1
   843   841   844      1
   844   841   845      1
   845   842   843      1
   846   842   846      1
   847   842   847      1
   848   843   848      1
   849   848   849      1
   850   848   851      1
   851   848   852      1
   852   849   850      1
   853   849   853      1
   854   849   854      1
   855   850   855      1
   856   855   856      1
   857   855   858      1
   858   855   859      1
   859   856   857      1
   860   856   860      1
   861   856   861      1
   862   857   862      1
   863   862   863      1
   864   862   865      1
   865   862   866      1
   866   863   864      1
   867   863   867      1
   868   863   868      1
   869   864   869      1
   870   869   870      1
   871   869   872      1
   872   869   873      1
   873   870   871      1
   874   870   874      1
   875   870   875      1
   876   871   876      1
   877   876   877      1
   878   876   879      1
   879   876   880      1
   880   877   878      1
   881   877   881      1
   882   877   882      1
   883   878   883      1
   884   883   884      1
   885   883   886      1
   886   883   887      1
   887   884   885      1
   888   884   888      1
   889   884   889      1
   890   885   890      1
   891   890   891      1
   892   890   893      1
   893   890   894      1
   894   891   892      1
   895   891   895      1
   896   891   896      1
   897   892   897      1
   898   897   898      1
   899   897   900      1
   900   897   901      1
   901   898   899      1
   902   898   902      1
   903   898   903      1
   904   899   904      1
   905   904   905      1
   906   904   907      1
   907   904   908      1
   908   905   906      1
   909   905   909      1
   910   905   910      1
   911   906   911      1
   912   911   912      1
   913   911   914      1
   914   911   915      1
   915   912   913      1
   916   912   916      1
   917   912   917      1
   918   913   918      1
   919   918   919      1
   920   918   921      1
   921   918   922      1
   922   919   920      1
   923   919   923      1
   924   919   924      1
   925   920   925      1
   926   925   926      1
   927   925   928      1
   928   925   929      1
   929   926   927      1
   930   926   930      1
   931   926   931      1
   932   927   932      1
   933   932   933      1
   934   932   935      1
   935   932   936      1
   936   933   934      1
   937   933   937      1
   938   933   938      1
   939   934   939      1
   940   939   940      1
   941   939   942      1
   942   939   943      1
   943   940   941      1
   944   940   944      1
   945   940   945      1
   946   941   946      1
