###
### Created by PolyChef-cpp17 on Mon May 12 10:39:08 2025
###

@<TRIPOS>MOLECULE
NO_INFO
954 953 1 0 0
SMALL
USER_CHARGES


@<TRIPOS>ATOM
      1 C         135.9126  225.5891   10.8825 C.3       0      M_A    0.0000
      2 C         135.0379  226.7940   10.5506 C.3       0      M_A    0.0000
      3 O         133.6757  226.5262   10.8799 O.3       0      M_A    0.0000
      4 H         136.1292  225.5599   11.9564 H         0      M_A    0.0000
      5 H         135.3670  224.6644   10.6592 H         0      M_A    0.0000
      6 H         135.0614  226.9866    9.4704 H         0      M_A    0.0000
      7 H         135.4004  227.7124   11.0347 H         0      M_A    0.0000
      8 C         133.2515  227.2659   12.0038 C.3       1      M_A    0.0000
      9 C         132.4364  226.4120   12.9701 C.3       1      M_A    0.0000
     10 O         131.9628  227.2050   14.0575 O.3       1      M_A    0.0000
     11 H         132.6654  228.1306   11.6724 H         1      M_A    0.0000
     12 H         134.1272  227.6752   12.5218 H         1      M_A    0.0000
     13 H         133.0737  225.6346   13.4106 H         1      M_A    0.0000
     14 H         131.6151  225.8853   12.4628 H         1      M_A    0.0000
     15 C         130.7401  227.8391   13.7522 C.3       2      M_A    0.0000
     16 C         129.6021  226.8342   13.6019 C.3       2      M_A    0.0000
     17 O         128.9802  226.5940   14.8634 O.3       2      M_A    0.0000
     18 H         130.8525  228.4271   12.8343 H         2      M_A    0.0000
     19 H         130.4954  228.5580   14.5434 H         2      M_A    0.0000
     20 H         129.9989  225.8679   13.2654 H         2      M_A    0.0000
     21 H         128.8722  227.1485   12.8419 H         2      M_A    0.0000
     22 C         127.7030  226.0128   14.7175 C.3       3      M_A    0.0000
     23 C         127.3331  225.1474   15.9181 C.3       3      M_A    0.0000
     24 O         125.9253  224.9182   15.9518 O.3       3      M_A    0.0000
     25 H         127.6747  225.4190   13.7968 H         3      M_A    0.0000
     26 H         126.9553  226.8047   14.5892 H         3      M_A    0.0000
     27 H         127.5817  225.6734   16.8486 H         3      M_A    0.0000
     28 H         127.8992  224.2048   15.9370 H         3      M_A    0.0000
     29 C         125.5985  223.7628   16.6926 C.3       4      M_A    0.0000
     30 C         126.0803  222.4910   16.0017 C.3       4      M_A    0.0000
     31 O         125.7559  221.3445   16.7866 O.3       4      M_A    0.0000
     32 H         124.5146  223.7237   16.8495 H         4      M_A    0.0000
     33 H         126.0460  223.8323   17.6914 H         4      M_A    0.0000
     34 H         127.1742  222.5047   15.9143 H         4      M_A    0.0000
     35 H         125.6909  222.4056   14.9768 H         4      M_A    0.0000
     36 C         125.6668  220.1769   15.9997 C.3       5      M_A    0.0000
     37 C         124.7350  219.1425   16.6233 C.3       5      M_A    0.0000
     38 O         124.7670  217.9282   15.8748 O.3       5      M_A    0.0000
     39 H         126.6676  219.7528   15.8602 H         5      M_A    0.0000
     40 H         125.3079  220.4401   14.9974 H         5      M_A    0.0000
     41 H         123.6986  219.5012   16.5838 H         5      M_A    0.0000
     42 H         124.9609  218.9713   17.6858 H         5      M_A    0.0000
     43 C         123.7798  217.0179   16.3075 C.3       6      M_A    0.0000
     44 C         123.9088  216.7063   17.7953 C.3       6      M_A    0.0000
     45 O         122.6890  216.1627   18.2978 O.3       6      M_A    0.0000
     46 H         123.8485  216.0965   15.7181 H         6      M_A    0.0000
     47 H         122.7861  217.4341   16.1026 H         6      M_A    0.0000
     48 H         124.0876  217.6321   18.3569 H         6      M_A    0.0000
     49 H         124.7645  216.0486   18.0061 H         6      M_A    0.0000
     50 C         122.6206  214.7658   18.1126 C.3       7      M_A    0.0000
     51 C         121.8635  214.0799   19.2456 C.3       7      M_A    0.0000
     52 O         121.2247  212.8952   18.7720 O.3       7      M_A    0.0000
     53 H         123.6344  214.3578   18.0304 H         7      M_A    0.0000
     54 H         122.1293  214.5491   17.1564 H         7      M_A    0.0000
     55 H         121.0632  214.7359   19.6111 H         7      M_A    0.0000
     56 H         122.5117  213.8747   20.1098 H         7      M_A    0.0000
     57 C         121.0436  211.9482   19.8019 C.3       8      M_A    0.0000
     58 C         120.6018  212.6057   21.1056 C.3       8      M_A    0.0000
     59 O         119.6394  211.7907   21.7731 O.3       8      M_A    0.0000
     60 H         121.9746  211.3901   19.9532 H         8      M_A    0.0000
     61 H         120.2960  211.2092   19.4895 H         8      M_A    0.0000
     62 H         120.1027  213.5596   20.8926 H         8      M_A    0.0000
     63 H         121.4550  212.8438   21.7572 H         8      M_A    0.0000
     64 C         120.2489  210.8712   22.6525 C.3       9      M_A    0.0000
     65 C         119.5742  209.5040   22.6004 C.3       9      M_A    0.0000
     66 O         120.4815  208.4848   23.0171 O.3       9      M_A    0.0000
     67 H         120.2236  211.2696   23.6731 H         9      M_A    0.0000
     68 H         121.3098  210.7691   22.3944 H         9      M_A    0.0000
     69 H         119.2955  209.2640   21.5664 H         9      M_A    0.0000
     70 H         118.6420  209.4818   23.1832 H         9      M_A    0.0000
     71 C         120.3206  208.1636   24.3814 C.3      10      M_A    0.0000
     72 C         120.7967  206.7477   24.6908 C.3      10      M_A    0.0000
     73 O         120.9309  206.5641   26.0994 O.3      10      M_A    0.0000
     74 H         119.2681  208.2815   24.6631 H        10      M_A    0.0000
     75 H         120.8792  208.8825   24.9929 H        10      M_A    0.0000
     76 H         121.7945  206.5872   24.2631 H        10      M_A    0.0000
     77 H         120.1434  205.9857   24.2418 H        10      M_A    0.0000
     78 C         121.2052  205.2204   26.4305 C.3      11      M_A    0.0000
     79 C         121.2548  204.3301   25.1927 C.3      11      M_A    0.0000
     80 O         122.1916  203.2701   25.3791 O.3      11      M_A    0.0000
     81 H         120.4471  204.8548   27.1324 H        11      M_A    0.0000
     82 H         122.1620  205.1650   26.9635 H        11      M_A    0.0000
     83 H         121.6115  204.9081   24.3307 H        11      M_A    0.0000
     84 H         120.2602  203.9502   24.9179 H        11      M_A    0.0000
     85 C         121.6082  202.1610   26.0271 C.3      12      M_A    0.0000
     86 C         122.5748  201.5041   27.0076 C.3      12      M_A    0.0000
     87 O         122.4511  200.0837   26.9524 O.3      12      M_A    0.0000
     88 H         121.2733  201.4346   25.2780 H        12      M_A    0.0000
     89 H         120.7054  202.4840   26.5594 H        12      M_A    0.0000
     90 H         122.3207  201.7955   28.0347 H        12      M_A    0.0000
     91 H         123.6125  201.8286   26.8436 H        12      M_A    0.0000
     92 C         123.1548  199.4538   28.0005 C.3      13      M_A    0.0000
     93 C         124.6210  199.8740   28.0320 C.3      13      M_A    0.0000
     94 O         125.3548  199.0530   28.9394 O.3      13      M_A    0.0000
     95 H         123.0726  198.3661   27.8941 H        13      M_A    0.0000
     96 H         122.6797  199.7004   28.9576 H        13      M_A    0.0000
     97 H         124.7072  200.9014   28.4079 H        13      M_A    0.0000
     98 H         125.0714  199.8746   27.0289 H        13      M_A    0.0000
     99 C         126.4313  198.3992   28.3037 C.3      14      M_A    0.0000
    100 C         127.0067  197.2820   29.1685 C.3      14      M_A    0.0000
    101 O         127.4195  196.1850   28.3549 O.3      14      M_A    0.0000
    102 H         127.2098  199.1305   28.0587 H        14      M_A    0.0000
    103 H         126.0921  197.9868   27.3458 H        14      M_A    0.0000
    104 H         126.2313  196.8923   29.8403 H        14      M_A    0.0000
    105 H         127.8221  197.6388   29.8143 H        14      M_A    0.0000
    106 C         128.5126  195.4942   28.9192 C.3      15      M_A    0.0000
    107 C         128.3261  193.9818   28.8471 C.3      15      M_A    0.0000
    108 O         129.5783  193.3359   28.6220 O.3      15      M_A    0.0000
    109 H         128.6482  195.8119   29.9593 H        15      M_A    0.0000
    110 H         129.4327  195.7779   28.3943 H        15      M_A    0.0000
    111 H         127.6887  193.7243   27.9915 H        15      M_A    0.0000
    112 H         127.8187  193.5859   29.7387 H        15      M_A    0.0000
    113 C         129.6705  192.1116   29.3169 C.3      16      M_A    0.0000
    114 C         129.9854  190.9498   28.3797 C.3      16      M_A    0.0000
    115 O         130.6601  189.9095   29.0855 O.3      16      M_A    0.0000
    116 H         128.7335  191.9245   29.8537 H        16      M_A    0.0000
    117 H         130.4491  192.1871   30.0855 H        16      M_A    0.0000
    118 H         130.6720  191.2819   27.5905 H        16      M_A    0.0000
    119 H         129.0861  190.5773   27.8681 H        16      M_A    0.0000
    120 C         129.8710  188.7443   29.1850 C.3      17      M_A    0.0000
    121 C         130.7058  187.5243   29.5617 C.3      17      M_A    0.0000
    122 O         129.9292  186.3334   29.4421 O.3      17      M_A    0.0000
    123 H         129.3520  188.5721   28.2352 H        17      M_A    0.0000
    124 H         129.0855  188.8996   29.9344 H        17      M_A    0.0000
    125 H         131.0090  187.5896   30.6144 H        17      M_A    0.0000
    126 H         131.6352  187.4642   28.9771 H        17      M_A    0.0000
    127 C         130.6996  185.2485   28.9730 C.3      18      M_A    0.0000
    128 C         132.0126  185.1128   29.7376 C.3      18      M_A    0.0000
    129 O         132.5504  183.8012   29.5748 O.3      18      M_A    0.0000
    130 H         130.8940  185.3743   27.9018 H        18      M_A    0.0000
    131 H         130.1199  184.3225   29.0680 H        18      M_A    0.0000
    132 H         131.8339  185.2409   30.8128 H        18      M_A    0.0000
    133 H         132.7382  185.8882   29.4520 H        18      M_A    0.0000
    134 C         133.7626  183.8161   28.8532 C.3      19      M_A    0.0000
    135 C         134.8517  183.0129   29.5574 C.3      19      M_A    0.0000
    136 O         135.8365  182.5804   28.6198 O.3      19      M_A    0.0000
    137 H         134.0882  184.8523   28.7068 H        19      M_A    0.0000
    138 H         133.5937  183.4079   27.8495 H        19      M_A    0.0000
    139 H         134.4215  182.1025   29.9938 H        19      M_A    0.0000
    140 H         135.3016  183.5708   30.3914 H        19      M_A    0.0000
    141 C         137.0921  182.3802   29.2311 C.3      20      M_A    0.0000
    142 C         136.9584  181.7099   30.5949 C.3      20      M_A    0.0000
    143 O         138.0226  180.7817   30.7999 O.3      20      M_A    0.0000
    144 H         137.6087  183.3418   29.3285 H        20      M_A    0.0000
    145 H         137.7211  181.7643   28.5773 H        20      M_A    0.0000
    146 H         136.0295  181.1269   30.6353 H        20      M_A    0.0000
    147 H         136.8964  182.4442   31.4110 H        20      M_A    0.0000
    148 C         138.4327  180.7421   32.1492 C.3      21      M_A    0.0000
    149 C         138.0857  179.4109   32.8086 C.3      21      M_A    0.0000
    150 O         139.0355  179.0966   33.8259 O.3      21      M_A    0.0000
    151 H         137.9690  181.5705   32.6967 H        21      M_A    0.0000
    152 H         139.5148  180.9108   32.2058 H        21      M_A    0.0000
    153 H         138.1461  178.6012   32.0702 H        21      M_A    0.0000
    154 H         137.0564  179.3982   33.1953 H        21      M_A    0.0000
    155 C         138.4774  179.2036   35.1171 C.3      22      M_A    0.0000
    156 C         139.4827  178.8304   36.2022 C.3      22      M_A    0.0000
    157 O         138.8826  177.9574   37.1580 O.3      22      M_A    0.0000
    158 H         137.5890  178.5655   35.1855 H        22      M_A    0.0000
    159 H         138.1253  180.2297   35.2775 H        22      M_A    0.0000
    160 H         139.7871  179.7287   36.7543 H        22      M_A    0.0000
    161 H         140.4035  178.4013   35.7813 H        22      M_A    0.0000
    162 C         139.8492  177.2491   37.9025 C.3      23      M_A    0.0000
    163 C         141.2693  177.6268   37.4929 C.3      23      M_A    0.0000
    164 O         142.2202  176.9728   38.3319 O.3      23      M_A    0.0000
    165 H         139.6904  176.1720   37.7766 H        23      M_A    0.0000
    166 H         139.7068  177.4525   38.9706 H        23      M_A    0.0000
    167 H         141.4246  178.7042   37.6332 H        23      M_A    0.0000
    168 H         141.4591  177.4248   36.4287 H        23      M_A    0.0000
    169 C         143.4493  176.7656   37.6711 C.3      24      M_A    0.0000
    170 C         143.8608  177.9801   36.8448 C.3      24      M_A    0.0000
    171 O         145.2700  177.9758   36.6210 O.3      24      M_A    0.0000
    172 H         143.3759  175.8779   37.0326 H        24      M_A    0.0000
    173 H         144.2272  176.5420   38.4110 H        24      M_A    0.0000
    174 H         143.6400  178.9013   37.3991 H        24      M_A    0.0000
    175 H         143.2995  178.0467   35.9016 H        24      M_A    0.0000
    176 C         145.6196  177.2132   35.4868 C.3      25      M_A    0.0000
    177 C         147.0997  177.3520   35.1442 C.3      25      M_A    0.0000
    178 O         147.8697  176.3902   35.8638 O.3      25      M_A    0.0000
    179 H         145.0014  177.5197   34.6354 H        25      M_A    0.0000
    180 H         145.3806  176.1586   35.6695 H        25      M_A    0.0000
    181 H         147.4654  178.3375   35.4597 H        25      M_A    0.0000
    182 H         147.2799  177.2894   34.0613 H        25      M_A    0.0000
    183 C         148.6727  176.9944   36.8540 C.3      26      M_A    0.0000
    184 C         147.8366  177.7712   37.8663 C.3      26      M_A    0.0000
    185 O         148.3091  177.5314   39.1910 O.3      26      M_A    0.0000
    186 H         149.4050  177.6559   36.3774 H        26      M_A    0.0000
    187 H         149.2550  176.2224   37.3714 H        26      M_A    0.0000
    188 H         146.7975  177.4188   37.8416 H        26      M_A    0.0000
    189 H         147.8024  178.8457   37.6349 H        26      M_A    0.0000
    190 C         147.4587  178.0991   40.1631 C.3      27      M_A    0.0000
    191 C         147.9861  177.8772   41.5773 C.3      27      M_A    0.0000
    192 O         147.9070  179.0847   42.3333 O.3      27      M_A    0.0000
    193 H         146.4530  177.6757   40.0610 H        27      M_A    0.0000
    194 H         147.3546  179.1740   39.9726 H        27      M_A    0.0000
    195 H         149.0488  177.6056   41.5414 H        27      M_A    0.0000
    196 H         147.4733  177.0464   42.0830 H        27      M_A    0.0000
    197 C         148.2587  178.8826   43.6845 C.3      28      M_A    0.0000
    198 C         149.6927  178.3825   43.8287 C.3      28      M_A    0.0000
    199 O         150.2089  178.7151   45.1166 O.3      28      M_A    0.0000
    200 H         147.5601  178.1729   44.1419 H        28      M_A    0.0000
    201 H         148.1386  179.8227   44.2363 H        28      M_A    0.0000
    202 H         150.3392  178.8859   43.0986 H        28      M_A    0.0000
    203 H         149.7765  177.3056   43.6226 H        28      M_A    0.0000
    204 C         150.6433  177.5718   45.8199 C.3      29      M_A    0.0000
    205 C         151.2823  177.9368   47.1562 C.3      29      M_A    0.0000
    206 O         151.7188  176.7612   47.8370 O.3      29      M_A    0.0000
    207 H         151.3508  177.0086   45.2008 H        29      M_A    0.0000
    208 H         149.7910  176.9029   45.9890 H        29      M_A    0.0000
    209 H         150.5387  178.4121   47.8086 H        29      M_A    0.0000
    210 H         152.0979  178.6648   47.0381 H        29      M_A    0.0000
    211 C         152.6108  177.0629   48.8875 C.3      30      M_A    0.0000
    212 C         153.2762  175.8082   49.4444 C.3      30      M_A    0.0000
    213 O         154.2734  176.1573   50.4034 O.3      30      M_A    0.0000
    214 H         152.0739  177.5937   49.6819 H        30      M_A    0.0000
    215 H         153.3781  177.7577   48.5253 H        30      M_A    0.0000
    216 H         153.7968  175.2730   48.6400 H        30      M_A    0.0000
    217 H         152.5426  175.1019   49.8593 H        30      M_A    0.0000
    218 C         154.1074  175.4529   51.6144 C.3      31      M_A    0.0000
    219 C         152.7596  175.7509   52.2638 C.3      31      M_A    0.0000
    220 O         152.7617  175.3354   53.6287 O.3      31      M_A    0.0000
    221 H         154.9244  175.7059   52.2995 H        31      M_A    0.0000
    222 H         154.1953  174.3764   51.4242 H        31      M_A    0.0000
    223 H         151.9696  175.1730   51.7673 H        31      M_A    0.0000
    224 H         152.4773  176.8088   52.1611 H        31      M_A    0.0000
    225 C         153.2784  176.3338   54.4812 C.3      32      M_A    0.0000
    226 C         152.3680  176.5831   55.6796 C.3      32      M_A    0.0000
    227 O         153.1106  177.1451   56.7606 O.3      32      M_A    0.0000
    228 H         153.4230  177.2601   53.9137 H        32      M_A    0.0000
    229 H         154.2741  176.0348   54.8302 H        32      M_A    0.0000
    230 H         151.9635  175.6310   56.0461 H        32      M_A    0.0000
    231 H         151.5001  177.2048   55.4159 H        32      M_A    0.0000
    232 C         153.4680  178.4868   56.5113 C.3      33      M_A    0.0000
    233 C         154.7274  178.8891   57.2724 C.3      33      M_A    0.0000
    234 O         155.5011  179.8093   56.5038 O.3      33      M_A    0.0000
    235 H         152.6336  179.1438   56.7817 H        33      M_A    0.0000
    236 H         153.6265  178.6273   55.4352 H        33      M_A    0.0000
    237 H         155.3644  178.0098   57.4322 H        33      M_A    0.0000
    238 H         154.4963  179.2870   58.2711 H        33      M_A    0.0000
    239 C         156.2310  180.6953   57.3239 C.3      34      M_A    0.0000
    240 C         156.8901  179.9723   58.4943 C.3      34      M_A    0.0000
    241 O         158.2914  179.8299   58.2663 O.3      34      M_A    0.0000
    242 H         155.5663  181.4859   57.6903 H        34      M_A    0.0000
    243 H         156.9974  181.1996   56.7230 H        34      M_A    0.0000
    244 H         156.4873  178.9550   58.5797 H        34      M_A    0.0000
    245 H         156.6824  180.4669   59.4542 H        34      M_A    0.0000
    246 C         158.8703  181.0249   57.7896 C.3      35      M_A    0.0000
    247 C         160.3333  181.1507   58.2033 C.3      35      M_A    0.0000
    248 O         160.8762  182.3875   57.7434 O.3      35      M_A    0.0000
    249 H         158.2954  181.8820   58.1581 H        35      M_A    0.0000
    250 H         158.7921  181.0563   56.6962 H        35      M_A    0.0000
    251 H         160.9256  180.3587   57.7276 H        35      M_A    0.0000
    252 H         160.4674  181.0259   59.2876 H        35      M_A    0.0000
    253 C         162.2761  182.3194   57.5826 C.3      36      M_A    0.0000
    254 C         163.0142  182.8077   58.8252 C.3      36      M_A    0.0000
    255 O         164.4217  182.6331   58.6691 O.3      36      M_A    0.0000
    256 H         162.5727  182.9087   56.7074 H        36      M_A    0.0000
    257 H         162.5674  181.2852   57.3630 H        36      M_A    0.0000
    258 H         162.7236  182.2034   59.6940 H        36      M_A    0.0000
    259 H         162.7586  183.8477   59.0746 H        36      M_A    0.0000
    260 C         165.1522  183.6591   59.3048 C.3      37      M_A    0.0000
    261 C         166.6556  183.4892   59.1099 C.3      37      M_A    0.0000
    262 O         167.3201  184.7448   59.2437 O.3      37      M_A    0.0000
    263 H         164.9061  183.6754   60.3726 H        37      M_A    0.0000
    264 H         164.8361  184.6310   58.9071 H        37      M_A    0.0000
    265 H         166.8631  183.1382   58.0910 H        37      M_A    0.0000
    266 H         167.0764  182.7322   59.7875 H        37      M_A    0.0000
    267 C         166.8602  185.4658   60.3658 C.3      38      M_A    0.0000
    268 C         167.9568  186.3396   60.9668 C.3      38      M_A    0.0000
    269 O         167.4016  187.5447   61.4915 O.3      38      M_A    0.0000
    270 H         166.4759  184.7666   61.1171 H        38      M_A    0.0000
    271 H         166.0090  186.0918   60.0723 H        38      M_A    0.0000
    272 H         168.6645  186.6419   60.1844 H        38      M_A    0.0000
    273 H         168.5459  185.8004   61.7227 H        38      M_A    0.0000
    274 C         168.4031  188.4585   61.8817 C.3      39      M_A    0.0000
    275 C         167.8331  189.6045   62.7118 C.3      39      M_A    0.0000
    276 O         168.8589  190.2068   63.4997 O.3      39      M_A    0.0000
    277 H         168.9092  188.8484   60.9912 H        39      M_A    0.0000
    278 H         169.1718  187.9312   62.4594 H        39      M_A    0.0000
    279 H         167.0880  189.2188   63.4193 H        39      M_A    0.0000
    280 H         167.3111  190.3451   62.0887 H        39      M_A    0.0000
    281 C         169.8392  190.8298   62.6989 C.3      40      M_A    0.0000
    282 C         170.9120  191.5110   63.5428 C.3      40      M_A    0.0000
    283 O         172.2122  191.1766   63.0599 O.3      40      M_A    0.0000
    284 H         169.3597  191.5566   62.0334 H        40      M_A    0.0000
    285 H         170.3038  190.0821   62.0448 H        40      M_A    0.0000
    286 H         170.8636  191.1439   64.5760 H        40      M_A    0.0000
    287 H         170.7653  192.5995   63.5960 H        40      M_A    0.0000
    288 C         173.2020  192.0407   63.5737 C.3      41      M_A    0.0000
    289 C         174.1441  191.3180   64.5315 C.3      41      M_A    0.0000
    290 O         175.4769  191.3292   64.0220 O.3      41      M_A    0.0000
    291 H         172.7222  192.8873   64.0780 H        41      M_A    0.0000
    292 H         173.7769  192.4697   62.7442 H        41      M_A    0.0000
    293 H         173.8552  190.2626   64.6144 H        41      M_A    0.0000
    294 H         174.0943  191.7315   65.5492 H        41      M_A    0.0000
    295 C         176.4217  190.9936   65.0144 C.3      42      M_A    0.0000
    296 C         175.9909  189.7698   65.8169 C.3      42      M_A    0.0000
    297 O         177.1208  188.9565   66.1296 O.3      42      M_A    0.0000
    298 H         176.5734  191.8511   65.6797 H        42      M_A    0.0000
    299 H         177.3929  190.8021   64.5424 H        42      M_A    0.0000
    300 H         175.3195  189.1451   65.2141 H        42      M_A    0.0000
    301 H         175.4265  190.0461   66.7192 H        42      M_A    0.0000
    302 C         177.2371  188.7297   67.5172 C.3      43      M_A    0.0000
    303 C         178.4836  187.9185   67.8568 C.3      43      M_A    0.0000
    304 O         179.1192  188.4458   69.0203 O.3      43      M_A    0.0000
    305 H         176.3389  188.2176   67.8805 H        43      M_A    0.0000
    306 H         177.2690  189.6922   68.0418 H        43      M_A    0.0000
    307 H         179.2154  187.9995   67.0429 H        43      M_A    0.0000
    308 H         178.2615  186.8470   67.9650 H        43      M_A    0.0000
    309 C         180.1177  187.5789   69.5122 C.3      44      M_A    0.0000
    310 C         181.0192  188.2715   70.5295 C.3      44      M_A    0.0000
    311 O         181.4813  187.3366   71.5032 O.3      44      M_A    0.0000
    312 H         180.7125  187.1945   68.6759 H        44      M_A    0.0000
    313 H         179.6447  186.7038   69.9739 H        44      M_A    0.0000
    314 H         180.4483  189.0311   71.0787 H        44      M_A    0.0000
    315 H         181.8530  188.8023   70.0476 H        44      M_A    0.0000
    316 C         182.3470  187.9386   72.4405 C.3      45      M_A    0.0000
    317 C         183.6203  188.4611   71.7826 C.3      45      M_A    0.0000
    318 O         184.1565  189.5509   72.5313 O.3      45      M_A    0.0000
    319 H         182.5936  187.2162   73.2269 H        45      M_A    0.0000
    320 H         181.8250  188.7632   72.9408 H        45      M_A    0.0000
    321 H         183.3902  188.8567   70.7851 H        45      M_A    0.0000
    322 H         184.3640  187.6650   71.6336 H        45      M_A    0.0000
    323 C         185.4344  189.9286   72.0680 C.3      46      M_A    0.0000
    324 C         185.9862  191.1244   72.8378 C.3      46      M_A    0.0000
    325 O         187.3982  191.0017   73.0028 O.3      46      M_A    0.0000
    326 H         185.3824  190.1561   70.9972 H        46      M_A    0.0000
    327 H         186.1217  189.0794   72.1632 H        46      M_A    0.0000
    328 H         185.5591  191.1476   73.8484 H        46      M_A    0.0000
    329 H         185.7133  192.0797   72.3666 H        46      M_A    0.0000
    330 C         187.9902  192.2227   73.3889 C.3      47      M_A    0.0000
    331 C         187.2148  192.8977   74.5159 C.3      47      M_A    0.0000
    332 O         188.1117  193.4079   75.5014 O.3      47      M_A    0.0000
    333 H         188.0560  192.8878   72.5204 H        47      M_A    0.0000
    334 H         189.0233  192.0410   73.7091 H        47      M_A    0.0000
    335 H         186.5820  192.1612   75.0274 H        47      M_A    0.0000
    336 H         186.5368  193.6777   74.1404 H        47      M_A    0.0000
    337 C         189.2878  193.9290   74.9222 C.3      48      M_A    0.0000
    338 C         190.1642  194.6327   75.9536 C.3      48      M_A    0.0000
    339 O         191.5445  194.4071   75.6712 O.3      48      M_A    0.0000
    340 H         189.0222  194.6194   74.1137 H        48      M_A    0.0000
    341 H         189.8528  193.1156   74.4514 H        48      M_A    0.0000
    342 H         189.9810  194.2107   76.9500 H        48      M_A    0.0000
    343 H         189.9343  195.7055   76.0270 H        48      M_A    0.0000
    344 C         191.9457  195.0364   74.4739 C.3      49      M_A    0.0000
    345 C         193.3967  194.7198   74.1254 C.3      49      M_A    0.0000
    346 O         194.1548  195.9230   74.0092 O.3      49      M_A    0.0000
    347 H         191.8034  196.1192   74.5647 H        49      M_A    0.0000
    348 H         191.2908  194.7133   73.6558 H        49      M_A    0.0000
    349 H         193.4470  194.2285   73.1453 H        49      M_A    0.0000
    350 H         193.8502  194.0211   74.8433 H        49      M_A    0.0000
    351 C         195.5043  195.6650   73.6889 C.3      50      M_A    0.0000
    352 C         196.2034  194.8630   74.7822 C.3      50      M_A    0.0000
    353 O         197.2435  194.0616   74.2239 O.3      50      M_A    0.0000
    354 H         196.0273  196.6129   73.5186 H        50      M_A    0.0000
    355 H         195.5549  195.1175   72.7401 H        50      M_A    0.0000
    356 H         195.4937  194.1664   75.2464 H        50      M_A    0.0000
    357 H         196.5763  195.5070   75.5917 H        50      M_A    0.0000
    358 C         198.3552  193.9673   75.0873 C.3      51      M_A    0.0000
    359 C         198.4373  192.6000   75.7590 C.3      51      M_A    0.0000
    360 O         199.7940  192.1652   75.8390 O.3      51      M_A    0.0000
    361 H         198.3000  194.7596   75.8424 H        51      M_A    0.0000
    362 H         199.2743  194.1550   74.5192 H        51      M_A    0.0000
    363 H         197.9101  191.8531   75.1517 H        51      M_A    0.0000
    364 H         197.9497  192.5948   76.7445 H        51      M_A    0.0000
    365 C         199.9503  191.0956   76.7455 C.3      52      M_A    0.0000
    366 C         201.4193  190.7442   76.9602 C.3      52      M_A    0.0000
    367 O         201.5539  189.7860   78.0088 O.3      52      M_A    0.0000
    368 H         199.3996  190.2220   76.3787 H        52      M_A    0.0000
    369 H         199.4905  191.3614   77.7050 H        52      M_A    0.0000
    370 H         201.9730  191.6347   77.2840 H        52      M_A    0.0000
    371 H         201.9014  190.4027   76.0328 H        52      M_A    0.0000
    372 C         202.8270  189.1781   78.0049 C.3      53      M_A    0.0000
    373 C         203.8277  189.9630   77.1625 C.3      53      M_A    0.0000
    374 O         205.1188  189.9358   77.7692 O.3      53      M_A    0.0000
    375 H         202.7402  188.1505   77.6339 H        53      M_A    0.0000
    376 H         203.1949  189.0973   79.0348 H        53      M_A    0.0000
    377 H         203.5311  191.0186   77.1171 H        53      M_A    0.0000
    378 H         203.8596  189.6075   76.1224 H        53      M_A    0.0000
    379 C         206.1217  189.5524   76.8540 C.3      54      M_A    0.0000
    380 C         207.4911  190.0926   77.2540 C.3      54      M_A    0.0000
    381 O         208.5247  189.3818   76.5741 O.3      54      M_A    0.0000
    382 H         205.8531  189.9011   75.8503 H        54      M_A    0.0000
    383 H         206.1600  188.4581   76.7934 H        54      M_A    0.0000
    384 H         207.6588  189.9288   78.3262 H        54      M_A    0.0000
    385 H         207.5696  191.1775   77.0927 H        54      M_A    0.0000
    386 C         209.7523  190.0760   76.6118 C.3      55      M_A    0.0000
    387 C         209.8168  191.0511   77.7832 C.3      55      M_A    0.0000
    388 O         211.1675  191.2341   78.2050 O.3      55      M_A    0.0000
    389 H         209.9008  190.6078   75.6651 H        55      M_A    0.0000
    390 H         210.5758  189.3555   76.6858 H        55      M_A    0.0000
    391 H         209.2788  190.6360   78.6450 H        55      M_A    0.0000
    392 H         209.3304  192.0092   77.5494 H        55      M_A    0.0000
    393 C         212.0718  191.1440   77.1259 C.3      56      M_A    0.0000
    394 C         213.4337  191.7354   77.4764 C.3      56      M_A    0.0000
    395 O         214.4798  190.9412   76.9189 O.3      56      M_A    0.0000
    396 H         211.6495  191.6523   76.2517 H        56      M_A    0.0000
    397 H         212.1895  190.0928   76.8365 H        56      M_A    0.0000
    398 H         213.5801  191.7178   78.5639 H        56      M_A    0.0000
    399 H         213.5165  192.7888   77.1719 H        56      M_A    0.0000
    400 C         215.6772  191.0567   77.6559 C.3      57      M_A    0.0000
    401 C         216.8871  190.5985   76.8477 C.3      57      M_A    0.0000
    402 O         217.8242  191.6651   76.7062 O.3      57      M_A    0.0000
    403 H         215.5946  190.4749   78.5809 H        57      M_A    0.0000
    404 H         215.8142  192.0996   77.9663 H        57      M_A    0.0000
    405 H         216.5759  190.3253   75.8314 H        57      M_A    0.0000
    406 H         217.3545  189.7010   77.2779 H        57      M_A    0.0000
    407 C         218.8618  191.3374   75.8081 C.3      58      M_A    0.0000
    408 C         218.3584  191.2393   74.3714 C.3      58      M_A    0.0000
    409 O         219.4553  191.1221   73.4664 O.3      58      M_A    0.0000
    410 H         219.3256  190.3929   76.1144 H        58      M_A    0.0000
    411 H         219.6511  192.0960   75.8715 H        58      M_A    0.0000
    412 H         217.8299  192.1611   74.0968 H        58      M_A    0.0000
    413 H         217.6358  190.4205   74.2427 H        58      M_A    0.0000
    414 C         220.2935  190.0357   73.7944 C.3      59      M_A    0.0000
    415 C         219.4956  188.7610   74.0507 C.3      59      M_A    0.0000
    416 O         220.1651  187.6332   73.4888 O.3      59      M_A    0.0000
    417 H         220.8958  190.2912   74.6736 H        59      M_A    0.0000
    418 H         221.0065  189.8670   72.9785 H        59      M_A    0.0000
    419 H         218.5217  188.8224   73.5485 H        59      M_A    0.0000
    420 H         219.2820  188.6162   75.1196 H        59      M_A    0.0000
    421 C         221.0206  187.0111   74.4223 C.3      60      M_A    0.0000
    422 C         222.4555  186.9306   73.9109 C.3      60      M_A    0.0000
    423 O         223.3593  186.7196   74.9946 O.3      60      M_A    0.0000
    424 H         220.6421  186.0090   74.6538 H        60      M_A    0.0000
    425 H         220.9961  187.5686   75.3664 H        60      M_A    0.0000
    426 H         222.7428  187.8852   73.4520 H        60      M_A    0.0000
    427 H         222.5724  186.1661   73.1291 H        60      M_A    0.0000
    428 C         224.6492  186.3699   74.5427 C.3      61      M_A    0.0000
    429 C         224.6611  185.0044   73.8625 C.3      61      M_A    0.0000
    430 O         225.9739  184.6895   73.4010 O.3      61      M_A    0.0000
    431 H         225.3478  186.3808   75.3870 H        61      M_A    0.0000
    432 H         225.0092  187.1337   73.8430 H        61      M_A    0.0000
    433 H         224.0187  185.0245   72.9729 H        61      M_A    0.0000
    434 H         224.2590  184.2155   74.5145 H        61      M_A    0.0000
    435 C         226.5787  183.6832   74.1834 C.3      62      M_A    0.0000
    436 C         227.4796  182.7795   73.3474 C.3      62      M_A    0.0000
    437 O         228.4382  182.1262   74.1781 O.3      62      M_A    0.0000
    438 H         225.8023  183.0913   74.6814 H        62      M_A    0.0000
    439 H         227.1646  184.1485   74.9851 H        62      M_A    0.0000
    440 H         228.0527  183.3824   72.6315 H        62      M_A    0.0000
    441 H         226.9015  182.0598   72.7499 H        62      M_A    0.0000
    442 C         229.4053  181.4333   73.4199 C.3      63      M_A    0.0000
    443 C         228.9024  181.1133   72.0157 C.3      63      M_A    0.0000
    444 O         229.9856  180.7118   71.1783 O.3      63      M_A    0.0000
    445 H         229.6881  180.5122   73.9422 H        63      M_A    0.0000
    446 H         230.3186  182.0369   73.3561 H        63      M_A    0.0000
    447 H         228.4764  182.0146   71.5569 H        63      M_A    0.0000
    448 H         228.0975  180.3640   72.0267 H        63      M_A    0.0000
    449 C         230.8777  181.7754   70.9270 C.3      64      M_A    0.0000
    450 C         232.2611  181.2727   70.5260 C.3      64      M_A    0.0000
    451 O         232.4055  181.2914   69.1066 O.3      64      M_A    0.0000
    452 H         230.9471  182.4123   71.8161 H        64      M_A    0.0000
    453 H         230.4712  182.4111   70.1312 H        64      M_A    0.0000
    454 H         232.3821  180.2263   70.8339 H        64      M_A    0.0000
    455 H         233.0644  181.8347   71.0239 H        64      M_A    0.0000
    456 C         233.3394  180.3325   68.6607 C.3      65      M_A    0.0000
    457 C         232.7803  178.9154   68.7427 C.3      65      M_A    0.0000
    458 O         233.7283  177.9762   68.2378 O.3      65      M_A    0.0000
    459 H         234.2581  180.4142   69.2525 H        65      M_A    0.0000
    460 H         233.6256  180.5569   67.6261 H        65      M_A    0.0000
    461 H         231.8907  178.8273   68.1062 H        65      M_A    0.0000
    462 H         232.4562  178.6584   69.7616 H        65      M_A    0.0000
    463 C         234.8626  177.8750   69.0705 C.3      66      M_A    0.0000
    464 C         235.2677  176.4227   69.3031 C.3      66      M_A    0.0000
    465 O         236.6824  176.2762   69.1899 O.3      66      M_A    0.0000
    466 H         234.6600  178.3716   70.0262 H        66      M_A    0.0000
    467 H         235.6973  178.4226   68.6166 H        66      M_A    0.0000
    468 H         234.8288  175.7834   68.5266 H        66      M_A    0.0000
    469 H         234.8947  176.0395   70.2640 H        66      M_A    0.0000
    470 C         237.0736  174.9209   69.2099 C.3      67      M_A    0.0000
    471 C         238.5629  174.7561   68.9233 C.3      67      M_A    0.0000
    472 O         238.7673  173.7986   67.8855 O.3      67      M_A    0.0000
    473 H         236.4809  174.3585   68.4795 H        67      M_A    0.0000
    474 H         236.8362  174.4880   70.1891 H        67      M_A    0.0000
    475 H         239.0728  174.3612   69.8113 H        67      M_A    0.0000
    476 H         239.0470  175.7160   68.6922 H        67      M_A    0.0000
    477 C         239.4670  174.3504   66.7917 C.3      68      M_A    0.0000
    478 C         240.7872  174.9814   67.2230 C.3      68      M_A    0.0000
    479 O         241.7492  174.8898   66.1733 O.3      68      M_A    0.0000
    480 H         238.8355  175.0931   66.2910 H        68      M_A    0.0000
    481 H         239.6580  173.5665   66.0490 H        68      M_A    0.0000
    482 H         241.2057  174.4279   68.0732 H        68      M_A    0.0000
    483 H         240.6563  176.0182   67.5653 H        68      M_A    0.0000
    484 C         241.1796  174.3989   64.9796 C.3      69      M_A    0.0000
    485 C         242.2101  174.2968   63.8595 C.3      69      M_A    0.0000
    486 O         242.5206  172.9301   63.5916 O.3      69      M_A    0.0000
    487 H         240.3504  175.0481   64.6762 H        69      M_A    0.0000
    488 H         240.7381  173.4124   65.1659 H        69      M_A    0.0000
    489 H         243.1496  174.7704   64.1717 H        69      M_A    0.0000
    490 H         241.8860  174.8257   62.9515 H        69      M_A    0.0000
    491 C         243.8799  172.7560   63.2566 C.3      70      M_A    0.0000
    492 C         244.7877  172.9061   64.4734 C.3      70      M_A    0.0000
    493 O         246.1535  172.7291   64.1006 O.3      70      M_A    0.0000
    494 H         244.1606  173.4774   62.4809 H        70      M_A    0.0000
    495 H         244.0208  171.7637   62.8114 H        70      M_A    0.0000
    496 H         244.5641  172.1197   65.2057 H        70      M_A    0.0000
    497 H         244.6282  173.8629   64.9914 H        70      M_A    0.0000
    498 C         246.8615  173.9494   64.1041 C.3      71      M_A    0.0000
    499 C         246.1065  175.0454   63.3585 C.3      71      M_A    0.0000
    500 O         246.7733  176.2982   63.5061 O.3      71      M_A    0.0000
    501 H         247.8517  173.7988   63.6592 H        71      M_A    0.0000
    502 H         247.0403  174.2634   65.1396 H        71      M_A    0.0000
    503 H         245.1080  175.1748   63.7953 H        71      M_A    0.0000
    504 H         245.9487  174.7908   62.3005 H        71      M_A    0.0000
    505 C         248.0362  176.2986   62.8772 C.3      72      M_A    0.0000
    506 C         248.7681  177.6223   63.0758 C.3      72      M_A    0.0000
    507 O         250.1696  177.3989   63.2234 O.3      72      M_A    0.0000
    508 H         247.9126  176.0884   61.8088 H        72      M_A    0.0000
    509 H         248.6428  175.4778   63.2784 H        72      M_A    0.0000
    510 H         248.4328  178.0989   64.0057 H        72      M_A    0.0000
    511 H         248.5531  178.3375   62.2687 H        72      M_A    0.0000
    512 C         250.9297  178.4694   62.7070 C.3      73      M_A    0.0000
    513 C         250.3685  179.8218   63.1352 C.3      73      M_A    0.0000
    514 O         251.2910  180.4955   63.9903 O.3      73      M_A    0.0000
    515 H         250.9633  178.4000   61.6138 H        73      M_A    0.0000
    516 H         251.9679  178.3762   63.0476 H        73      M_A    0.0000
    517 H         249.4531  179.6774   63.7230 H        73      M_A    0.0000
    518 H         250.0855  180.4426   62.2728 H        73      M_A    0.0000
    519 C         250.9797  181.8650   64.1241 C.3      74      M_A    0.0000
    520 C         249.4784  182.1176   64.0266 C.3      74      M_A    0.0000
    521 O         249.0235  182.8576   65.1586 O.3      74      M_A    0.0000
    522 H         251.5128  182.4377   63.3568 H        74      M_A    0.0000
    523 H         251.3536  182.2307   65.0880 H        74      M_A    0.0000
    524 H         248.9370  181.1632   64.0450 H        74      M_A    0.0000
    525 H         249.2034  182.6091   63.0822 H        74      M_A    0.0000
    526 C         250.0969  183.3628   65.9221 C.3      75      M_A    0.0000
    527 C         250.1296  184.8879   65.9150 C.3      75      M_A    0.0000
    528 O         251.4044  185.3606   66.3475 O.3      75      M_A    0.0000
    529 H         251.0406  182.9598   65.5375 H        75      M_A    0.0000
    530 H         250.0119  183.0004   66.9537 H        75      M_A    0.0000
    531 H         249.3965  185.2808   66.6310 H        75      M_A    0.0000
    532 H         249.8538  185.3017   64.9342 H        75      M_A    0.0000
    533 C         251.3840  186.7424   66.6315 C.3      76      M_A    0.0000
    534 C         250.8026  187.5504   65.4754 C.3      76      M_A    0.0000
    535 O         251.7541  188.5049   65.0071 O.3      76      M_A    0.0000
    536 H         252.3997  187.0834   66.8615 H        76      M_A    0.0000
    537 H         250.7935  186.9188   67.5386 H        76      M_A    0.0000
    538 H         249.9342  188.1255   65.8210 H        76      M_A    0.0000
    539 H         250.4401  186.9049   64.6624 H        76      M_A    0.0000
    540 C         251.2693  189.2295   63.8979 C.3      77      M_A    0.0000
    541 C         251.2907  188.3941   62.6215 C.3      77      M_A    0.0000
    542 O         250.4146  188.9548   61.6448 O.3      77      M_A    0.0000
    543 H         251.8652  190.1399   63.7671 H        77      M_A    0.0000
    544 H         250.2455  189.5654   64.1018 H        77      M_A    0.0000
    545 H         250.9141  187.3845   62.8294 H        77      M_A    0.0000
    546 H         252.3099  188.2674   62.2287 H        77      M_A    0.0000
    547 C         250.3988  188.1958   60.4556 C.3      78      M_A    0.0000
    548 C         251.5354  187.1790   60.4165 C.3      78      M_A    0.0000
    549 O         251.1795  186.0657   59.5983 O.3      78      M_A    0.0000
    550 H         250.4593  188.8680   59.5921 H        78      M_A    0.0000
    551 H         249.4365  187.6772   60.3677 H        78      M_A    0.0000
    552 H         251.7124  186.7776   61.4225 H        78      M_A    0.0000
    553 H         252.4839  187.6331   60.0953 H        78      M_A    0.0000
    554 C         252.3036  185.2859   59.2540 C.3      79      M_A    0.0000
    555 C         253.1902  185.0041   60.4630 C.3      79      M_A    0.0000
    556 O         253.6930  183.6698   60.4116 O.3      79      M_A    0.0000
    557 H         252.8770  185.7964   58.4720 H        79      M_A    0.0000
    558 H         251.9686  184.3391   58.8135 H        79      M_A    0.0000
    559 H         252.5988  185.0750   61.3847 H        79      M_A    0.0000
    560 H         254.0009  185.7407   60.5604 H        79      M_A    0.0000
    561 C         254.5079  183.4584   59.2796 C.3      80      M_A    0.0000
    562 C         255.4978  182.3185   59.4983 C.3      80      M_A    0.0000
    563 O         255.5582  181.4830   58.3432 O.3      80      M_A    0.0000
    564 H         255.0412  184.3842   59.0351 H        80      M_A    0.0000
    565 H         253.8751  183.2363   58.4119 H        80      M_A    0.0000
    566 H         255.1560  181.6797   60.3226 H        80      M_A    0.0000
    567 H         256.4932  182.6863   59.7866 H        80      M_A    0.0000
    568 C         256.6904  180.6416   58.3618 C.3      81      M_A    0.0000
    569 C         256.7765  179.7787   57.1067 C.3      81      M_A    0.0000
    570 O         258.1015  179.2774   56.9369 O.3      81      M_A    0.0000
    571 H         256.6620  180.0099   59.2569 H        81      M_A    0.0000
    572 H         257.5966  181.2527   58.4521 H        81      M_A    0.0000
    573 H         256.5616  180.3874   56.2192 H        81      M_A    0.0000
    574 H         256.0327  178.9687   57.1115 H        81      M_A    0.0000
    575 C         258.1048  177.9680   56.4118 C.3      82      M_A    0.0000
    576 C         257.1851  177.8401   55.2014 C.3      82      M_A    0.0000
    577 O         257.9198  177.3932   54.0628 O.3      82      M_A    0.0000
    578 H         257.8064  177.2600   57.1932 H        82      M_A    0.0000
    579 H         259.1277  177.6920   56.1287 H        82      M_A    0.0000
    580 H         256.7762  178.8237   54.9372 H        82      M_A    0.0000
    581 H         256.3203  177.1928   55.4072 H        82      M_A    0.0000
    582 C         258.8418  176.3791   54.3973 C.3      83      M_A    0.0000
    583 C         259.5692  175.8456   53.1670 C.3      83      M_A    0.0000
    584 O         260.8164  175.2616   53.5402 O.3      83      M_A    0.0000
    585 H         258.3193  175.5656   54.9133 H        83      M_A    0.0000
    586 H         259.5713  176.7729   55.1153 H        83      M_A    0.0000
    587 H         259.8080  176.6726   52.4862 H        83      M_A    0.0000
    588 H         258.9473  175.1440   52.5924 H        83      M_A    0.0000
    589 C         261.4242  174.5860   52.4611 C.3      84      M_A    0.0000
    590 C         261.8740  173.1817   52.8522 C.3      84      M_A    0.0000
    591 O         261.7371  172.2893   51.7474 O.3      84      M_A    0.0000
    592 H         262.2762  175.1711   52.0968 H        84      M_A    0.0000
    593 H         260.7180  174.5275   51.6242 H        84      M_A    0.0000
    594 H         261.2264  172.7897   53.6468 H        84      M_A    0.0000
    595 H         262.8964  173.1740   53.2569 H        84      M_A    0.0000
    596 C         260.5311  172.5015   51.0467 C.3      85      M_A    0.0000
    597 C         260.4567  171.6585   49.7774 C.3      85      M_A    0.0000
    598 O         259.1067  171.2852   49.5061 O.3      85      M_A    0.0000
    599 H         260.4321  173.5655   50.8035 H        85      M_A    0.0000
    600 H         259.6836  172.2608   51.6997 H        85      M_A    0.0000
    601 H         261.0127  170.7227   49.9173 H        85      M_A    0.0000
    602 H         260.9191  172.1654   48.9181 H        85      M_A    0.0000
    603 C         258.8532  171.2002   48.1208 C.3      86      M_A    0.0000
    604 C         259.6335  170.0621   47.4703 C.3      86      M_A    0.0000
    605 O         258.7907  169.3200   46.5901 O.3      86      M_A    0.0000
    606 H         259.1035  172.1547   47.6441 H        86      M_A    0.0000
    607 H         257.7791  171.0527   47.9557 H        86      M_A    0.0000
    608 H         259.9744  169.3560   48.2382 H        86      M_A    0.0000
    609 H         260.5386  170.4218   46.9597 H        86      M_A    0.0000
    610 C         259.5104  168.7830   45.5019 C.3      87      M_A    0.0000
    611 C         259.3585  167.2677   45.4139 C.3      87      M_A    0.0000
    612 O         259.0968  166.8707   44.0686 O.3      87      M_A    0.0000
    613 H         260.5681  169.0550   45.5933 H        87      M_A    0.0000
    614 H         259.1595  169.2437   44.5706 H        87      M_A    0.0000
    615 H         258.4918  166.9441   46.0044 H        87      M_A    0.0000
    616 H         260.2289  166.7410   45.8313 H        87      M_A    0.0000
    617 C         260.2869  166.6920   43.3325 C.3      88      M_A    0.0000
    618 C         260.2224  165.4555   42.4414 C.3      88      M_A    0.0000
    619 O         259.8787  165.8215   41.1058 O.3      88      M_A    0.0000
    620 H         261.1359  166.6206   44.0218 H        88      M_A    0.0000
    621 H         260.4713  167.5809   42.7172 H        88      M_A    0.0000
    622 H         259.4275  164.7842   42.7907 H        88      M_A    0.0000
    623 H         261.1543  164.8728   42.4763 H        88      M_A    0.0000
    624 C         260.4861  164.9738   40.1557 C.3      89      M_A    0.0000
    625 C         260.3567  163.5038   40.5425 C.3      89      M_A    0.0000
    626 O         259.2989  162.8874   39.8098 O.3      89      M_A    0.0000
    627 H         261.5416  165.2467   40.0442 H        89      M_A    0.0000
    628 H         260.0262  165.1388   39.1740 H        89      M_A    0.0000
    629 H         260.0869  163.4188   41.6029 H        89      M_A    0.0000
    630 H         261.3052  162.9607   40.4220 H        89      M_A    0.0000
    631 C         259.5493  161.5188   39.5762 C.3      90      M_A    0.0000
    632 C         258.3751  160.6456   40.0075 C.3      90      M_A    0.0000
    633 O         258.0695  159.6869   38.9959 O.3      90      M_A    0.0000
    634 H         260.4612  161.2187   40.1047 H        90      M_A    0.0000
    635 H         259.7530  161.3628   38.5100 H        90      M_A    0.0000
    636 H         257.4755  161.2625   40.1287 H        90      M_A    0.0000
    637 H         258.5531  160.1668   40.9812 H        90      M_A    0.0000
    638 C         257.4463  158.5396   39.5303 C.3      91      M_A    0.0000
    639 C         256.7130  157.7408   38.4573 C.3      91      M_A    0.0000
    640 O         257.1544  156.3840   38.4577 O.3      91      M_A    0.0000
    641 H         256.7523  158.8370   40.3245 H        91      M_A    0.0000
    642 H         258.2013  157.9057   40.0107 H        91      M_A    0.0000
    643 H         256.9519  158.1419   37.4641 H        91      M_A    0.0000
    644 H         255.6209  157.8131   38.5636 H        91      M_A    0.0000
    645 C         257.3044  155.8797   37.1487 C.3      92      M_A    0.0000
    646 C         256.0569  156.1167   36.3032 C.3      92      M_A    0.0000
    647 O         256.1381  155.3863   35.0802 O.3      92      M_A    0.0000
    648 H         257.5363  154.8095   37.1936 H        92      M_A    0.0000
    649 H         258.1693  156.3564   36.6719 H        92      M_A    0.0000
    650 H         255.9897  157.1762   36.0251 H        92      M_A    0.0000
    651 H         255.1345  155.8846   36.8551 H        92      M_A    0.0000
    652 C         254.8749  155.2439   34.4683 C.3      93      M_A    0.0000
    653 C         254.6270  153.8115   34.0058 C.3      93      M_A    0.0000
    654 O         253.2268  153.5459   33.9365 O.3      93      M_A    0.0000
    655 H         254.7986  155.9359   33.6219 H        93      M_A    0.0000
    656 H         254.0921  155.5441   35.1752 H        93      M_A    0.0000
    657 H         255.0382  153.1057   34.7388 H        93      M_A    0.0000
    658 H         255.1300  153.5930   33.0527 H        93      M_A    0.0000
    659 C         252.9330  152.1964   34.2241 C.3      94      M_A    0.0000
    660 C         252.4474  151.4458   32.9880 C.3      94      M_A    0.0000
    661 O         252.5968  150.0384   33.1694 O.3      94      M_A    0.0000
    662 H         252.1804  152.1476   35.0193 H        94      M_A    0.0000
    663 H         253.8284  151.7065   34.6252 H        94      M_A    0.0000
    664 H         253.0668  151.7119   32.1219 H        94      M_A    0.0000
    665 H         251.4148  151.7142   32.7217 H        94      M_A    0.0000
    666 C         251.4835  149.4721   33.8254 C.3      95      M_A    0.0000
    667 C         251.2687  148.0162   33.4236 C.3      95      M_A    0.0000
    668 O         251.7156  147.1427   34.4596 O.3      95      M_A    0.0000
    669 H         250.5884  150.0643   33.6038 H        95      M_A    0.0000
    670 H         251.6282  149.5379   34.9105 H        95      M_A    0.0000
    671 H         251.8738  147.7794   32.5391 H        95      M_A    0.0000
    672 H         250.2243  147.8152   33.1446 H        95      M_A    0.0000
    673 C         251.4140  145.7939   34.1762 C.3      96      M_A    0.0000
    674 C         252.0986  145.3158   32.8995 C.3      96      M_A    0.0000
    675 O         252.8144  144.1055   33.1417 O.3      96      M_A    0.0000
    676 H         250.3280  145.6715   34.0947 H        96      M_A    0.0000
    677 H         251.7262  145.1662   35.0196 H        96      M_A    0.0000
    678 H         252.8432  146.0542   32.5758 H        96      M_A    0.0000
    679 H         251.3891  145.2088   32.0663 H        96      M_A    0.0000
    680 C         251.9888  142.9699   33.0030 C.3      97      M_A    0.0000
    681 C         252.8025  141.7047   32.7490 C.3      97      M_A    0.0000
    682 O         252.0075  140.5447   32.9900 O.3      97      M_A    0.0000
    683 H         251.2754  143.1340   32.1875 H        97      M_A    0.0000
    684 H         251.3863  142.8450   33.9108 H        97      M_A    0.0000
    685 H         253.6431  141.6535   33.4527 H        97      M_A    0.0000
    686 H         253.2435  141.6935   31.7417 H        97      M_A    0.0000
    687 C         251.2632  140.1718   31.8510 C.3      98      M_A    0.0000
    688 C         251.4838  138.7076   31.4838 C.3      98      M_A    0.0000
    689 O         250.2734  137.9679   31.6376 O.3      98      M_A    0.0000
    690 H         251.5329  140.8202   31.0097 H        98      M_A    0.0000
    691 H         250.1973  140.3485   32.0389 H        98      M_A    0.0000
    692 H         252.2103  138.2554   32.1708 H        98      M_A    0.0000
    693 H         251.9039  138.5946   30.4738 H        98      M_A    0.0000
    694 C         250.1642  136.9345   30.6835 C.3      99      M_A    0.0000
    695 C         251.4584  136.1362   30.5613 C.3      99      M_A    0.0000
    696 O         251.4324  135.0088   31.4355 O.3      99      M_A    0.0000
    697 H         249.8868  137.3609   29.7128 H        99      M_A    0.0000
    698 H         249.3427  136.2646   30.9649 H        99      M_A    0.0000
    699 H         252.3090  136.7525   30.8791 H        99      M_A    0.0000
    700 H         251.6640  135.8405   29.5223 H        99      M_A    0.0000
    701 C         250.8080  133.8942   30.8372 C.3     100      M_A    0.0000
    702 C         250.6126  132.7527   31.8302 C.3     100      M_A    0.0000
    703 O         249.6801  131.8017   31.3185 O.3     100      M_A    0.0000
    704 H         251.4040  133.5568   29.9816 H       100      M_A    0.0000
    705 H         249.8368  134.1974   30.4279 H       100      M_A    0.0000
    706 H         250.1794  133.1380   32.7620 H       100      M_A    0.0000
    707 H         251.5658  132.2793   32.1070 H       100      M_A    0.0000
    708 C         249.7592  130.5689   32.0000 C.3     101      M_A    0.0000
    709 C         249.1461  129.4319   31.1885 C.3     101      M_A    0.0000
    710 O         249.8327  128.2084   31.4482 O.3     101      M_A    0.0000
    711 H         249.2598  130.6557   32.9716 H       101      M_A    0.0000
    712 H         250.8093  130.3412   32.2195 H       101      M_A    0.0000
    713 H         249.2668  129.6310   30.1160 H       101      M_A    0.0000
    714 H         248.0648  129.3366   31.3639 H       101      M_A    0.0000
    715 C         248.9567  127.2006   31.9036 C.3     102      M_A    0.0000
    716 C         247.8667  126.8923   30.8818 C.3     102      M_A    0.0000
    717 O         247.9480  125.5309   30.4626 O.3     102      M_A    0.0000
    718 H         248.5099  127.5077   32.8561 H       102      M_A    0.0000
    719 H         249.5294  126.2904   32.1183 H       102      M_A    0.0000
    720 H         248.0160  127.5012   29.9811 H       102      M_A    0.0000
    721 H         246.8647  127.1424   31.2596 H       102      M_A    0.0000
    722 C         249.1273  125.2758   29.7314 C.3     103      M_A    0.0000
    723 C         249.3808  123.7804   29.5677 C.3     103      M_A    0.0000
    724 O         250.4663  123.3659   30.3957 O.3     103      M_A    0.0000
    725 H         249.9777  125.7537   30.2307 H       103      M_A    0.0000
    726 H         249.0526  125.7475   28.7442 H       103      M_A    0.0000
    727 H         249.6812  123.5632   28.5348 H       103      M_A    0.0000
    728 H         248.4753  123.1856   29.7562 H       103      M_A    0.0000
    729 C         250.0384  123.0425   31.7006 C.3     104      M_A    0.0000
    730 C         248.8358  123.8788   32.1266 C.3     104      M_A    0.0000
    731 O         247.9510  123.1035   32.9341 O.3     104      M_A    0.0000
    732 H         250.8680  123.1831   32.4027 H       104      M_A    0.0000
    733 H         249.7817  121.9773   31.7458 H       104      M_A    0.0000
    734 H         248.2598  124.1823   31.2431 H       104      M_A    0.0000
    735 H         249.1377  124.8081   32.6311 H       104      M_A    0.0000
    736 C         247.3551  122.0546   32.2026 C.3     105      M_A    0.0000
    737 C         245.9255  122.3916   31.7903 C.3     105      M_A    0.0000
    738 O         245.4477  121.4475   30.8331 O.3     105      M_A    0.0000
    739 H         247.3726  121.1362   32.8002 H       105      M_A    0.0000
    740 H         247.9569  121.8457   31.3099 H       105      M_A    0.0000
    741 H         245.9001  123.3710   31.2959 H       105      M_A    0.0000
    742 H         245.2533  122.4673   32.6573 H       105      M_A    0.0000
    743 C         244.0735  121.1766   31.0028 C.3     106      M_A    0.0000
    744 C         243.3918  120.8507   29.6775 C.3     106      M_A    0.0000
    745 O         242.5846  119.6813   29.8072 O.3     106      M_A    0.0000
    746 H         243.5878  122.0355   31.4797 H       106      M_A    0.0000
    747 H         243.9512  120.3365   31.6970 H       106      M_A    0.0000
    748 H         244.1473  120.6203   28.9155 H       106      M_A    0.0000
    749 H         242.8144  121.7026   29.2904 H       106      M_A    0.0000
    750 C         242.2824  119.1097   28.5533 C.3     107      M_A    0.0000
    751 C         241.9562  120.1729   27.5091 C.3     107      M_A    0.0000
    752 O         241.7077  119.5663   26.2417 O.3     107      M_A    0.0000
    753 H         241.4438  118.4126   28.6619 H       107      M_A    0.0000
    754 H         243.1335  118.5075   28.2133 H       107      M_A    0.0000
    755 H         242.8192  120.8362   27.3689 H       107      M_A    0.0000
    756 H         241.1215  120.8164   27.8226 H       107      M_A    0.0000
    757 C         240.4466  118.9353   26.1994 C.3     108      M_A    0.0000
    758 C         239.8773  118.9000   24.7845 C.3     108      M_A    0.0000
    759 O         238.9583  117.8175   24.6444 O.3     108      M_A    0.0000
    760 H         239.7560  119.4527   26.8749 H       108      M_A    0.0000
    761 H         240.5380  117.9131   26.5859 H       108      M_A    0.0000
    762 H         240.6826  118.7155   24.0622 H       108      M_A    0.0000
    763 H         239.4220  119.8594   24.4992 H       108      M_A    0.0000
    764 C         238.1100  117.9891   23.5303 C.3     109      M_A    0.0000
    765 C         237.9079  116.6849   22.7652 C.3     109      M_A    0.0000
    766 O         236.6629  116.7043   22.0683 O.3     109      M_A    0.0000
    767 H         238.5259  118.7579   22.8692 H       109      M_A    0.0000
    768 H         237.1398  118.3733   23.8673 H       109      M_A    0.0000
    769 H         237.8542  115.8438   23.4681 H       109      M_A    0.0000
    770 H         238.7485  116.4684   22.0901 H       109      M_A    0.0000
    771 C         236.2641  118.0174   21.7413 C.3     110      M_A    0.0000
    772 C         235.4052  118.0520   20.4810 C.3     110      M_A    0.0000
    773 O         234.3992  119.0577   20.5915 O.3     110      M_A    0.0000
    774 H         237.1513  118.6482   21.6149 H       110      M_A    0.0000
    775 H         235.7048  118.4476   22.5808 H       110      M_A    0.0000
    776 H         234.8754  117.0981   20.3636 H       110      M_A    0.0000
    777 H         236.0112  118.1810   19.5725 H       110      M_A    0.0000
    778 C         233.5201  119.0451   19.4882 C.3     111      M_A    0.0000
    779 C         232.6886  120.3218   19.4109 C.3     111      M_A    0.0000
    780 O         232.2753  120.5663   18.0673 O.3     111      M_A    0.0000
    781 H         232.8660  118.1680   19.5518 H       111      M_A    0.0000
    782 H         234.0978  118.9246   18.5639 H       111      M_A    0.0000
    783 H         233.2996  121.1841   19.7067 H       111      M_A    0.0000
    784 H         231.8334  120.2994   20.1018 H       111      M_A    0.0000
    785 C         231.9541  119.3708   17.3905 C.3     112      M_A    0.0000
    786 C         230.6624  119.5020   16.5896 C.3     112      M_A    0.0000
    787 O         229.6895  118.5690   17.0575 O.3     112      M_A    0.0000
    788 H         231.8721  118.5518   18.1140 H       112      M_A    0.0000
    789 H         232.7783  119.0997   16.7197 H       112      M_A    0.0000
    790 H         230.8481  119.2513   15.5374 H       112      M_A    0.0000
    791 H         230.2754  120.5312   16.5969 H       112      M_A    0.0000
    792 C         228.3804  119.0882   16.9732 C.3     113      M_A    0.0000
    793 C         228.1739  120.2630   17.9242 C.3     113      M_A    0.0000
    794 O         227.1284  121.1101   17.4494 O.3     113      M_A    0.0000
    795 H         227.6573  118.2931   17.1877 H       113      M_A    0.0000
    796 H         228.1813  119.4078   15.9433 H       113      M_A    0.0000
    797 H         229.0801  120.8812   17.9567 H       113      M_A    0.0000
    798 H         227.9910  119.9309   18.9564 H       113      M_A    0.0000
    799 C         226.1064  120.3762   16.8113 C.3     114      M_A    0.0000
    800 C         224.8011  121.1630   16.7432 C.3     114      M_A    0.0000
    801 O         223.9524  120.6322   15.7265 O.3     114      M_A    0.0000
    802 H         225.9525  119.4285   17.3396 H       114      M_A    0.0000
    803 H         226.4290  120.1083   15.7980 H       114      M_A    0.0000
    804 H         225.0063  122.2034   16.4608 H       114      M_A    0.0000
    805 H         224.2927  121.2033   17.7174 H       114      M_A    0.0000
    806 C         222.5875  120.8150   16.0330 C.3     115      M_A    0.0000
    807 C         221.6812  120.1136   15.0261 C.3     115      M_A    0.0000
    808 O         220.4580  119.7204   15.6467 O.3     115      M_A    0.0000
    809 H         222.3608  121.8867   16.0674 H       115      M_A    0.0000
    810 H         222.3862  120.4314   17.0405 H       115      M_A    0.0000
    811 H         222.1583  119.1902   14.6738 H       115      M_A    0.0000
    812 H         221.5042  120.7288   14.1321 H       115      M_A    0.0000
    813 C         219.4471  120.6897   15.4766 C.3     116      M_A    0.0000
    814 C         218.0570  120.1065   15.7103 C.3     116      M_A    0.0000
    815 O         217.1073  120.7187   14.8391 O.3     116      M_A    0.0000
    816 H         219.5163  121.1173   14.4700 H       116      M_A    0.0000
    817 H         219.6198  121.5212   16.1705 H       116      M_A    0.0000
    818 H         217.7253  120.3292   16.7325 H       116      M_A    0.0000
    819 H         218.0482  119.0109   15.6160 H       116      M_A    0.0000
    820 C         215.9053  119.9831   14.7716 C.3     117      M_A    0.0000
    821 C         215.6056  119.2648   16.0837 C.3     117      M_A    0.0000
    822 O         214.2164  118.9521   16.1740 O.3     117      M_A    0.0000
    823 H         215.9634  119.2627   13.9478 H       117      M_A    0.0000
    824 H         215.0782  120.6592   14.5238 H       117      M_A    0.0000
    825 H         215.8280  119.9260   16.9309 H       117      M_A    0.0000
    826 H         216.2330  118.3718   16.2176 H       117      M_A    0.0000
    827 C         213.8096  118.0665   15.1539 C.3     118      M_A    0.0000
    828 C         212.2931  118.0493   14.9891 C.3     118      M_A    0.0000
    829 O         211.9431  117.8278   13.6237 O.3     118      M_A    0.0000
    830 H         214.1800  117.0591   15.3753 H       118      M_A    0.0000
    831 H         214.2802  118.3602   14.2079 H       118      M_A    0.0000
    832 H         211.8769  119.0283   15.2587 H       118      M_A    0.0000
    833 H         211.8142  117.3175   15.6556 H       118      M_A    0.0000
    834 C         210.5510  117.6714   13.4568 C.3     119      M_A    0.0000
    835 C         210.0310  118.4614   12.2599 C.3     119      M_A    0.0000
    836 O         208.8075  117.9004   11.7865 O.3     119      M_A    0.0000
    837 H         210.0357  117.9837   14.3721 H       119      M_A    0.0000
    838 H         210.3174  116.6079   13.3265 H       119      M_A    0.0000
    839 H         210.7436  118.3919   11.4281 H       119      M_A    0.0000
    840 H         209.9265  119.5324   12.4866 H       119      M_A    0.0000
    841 C         207.9290  117.5867   12.8449 C.3     120      M_A    0.0000
    842 C         206.5743  117.1061   12.3340 C.3     120      M_A    0.0000
    843 O         206.5858  115.6916   12.1473 O.3     120      M_A    0.0000
    844 H         207.8036  118.4648   13.4884 H       120      M_A    0.0000
    845 H         208.3813  116.8121   13.4758 H       120      M_A    0.0000
    846 H         206.3692  117.5450   11.3492 H       120      M_A    0.0000
    847 H         205.7503  117.4231   12.9896 H       120      M_A    0.0000
    848 C         205.4183  115.2377   11.4982 C.3     121      M_A    0.0000
    849 C         205.7427  114.3203   10.3234 C.3     121      M_A    0.0000
    850 O         204.7191  113.3398   10.1598 O.3     121      M_A    0.0000
    851 H         204.8308  116.0983   11.1585 H       121      M_A    0.0000
    852 H         204.7852  114.7053   12.2183 H       121      M_A    0.0000
    853 H         206.6690  113.7675   10.5256 H       121      M_A    0.0000
    854 H         205.9175  114.8844    9.3958 H       121      M_A    0.0000
    855 C         203.4397  113.8638   10.4407 C.3     122      M_A    0.0000
    856 C         202.3535  113.1813    9.6152 C.3     122      M_A    0.0000
    857 O         201.5969  112.2870   10.4299 O.3     122      M_A    0.0000
    858 H         203.4379  114.9437   10.2539 H       122      M_A    0.0000
    859 H         203.2229  113.7417   11.5088 H       122      M_A    0.0000
    860 H         202.8118  112.5681    8.8287 H       122      M_A    0.0000
    861 H         201.7080  113.9083    9.1014 H       122      M_A    0.0000
    862 C         200.6197  111.5954    9.6837 C.3     123      M_A    0.0000
    863 C         201.2479  110.6227    8.6905 C.3     123      M_A    0.0000
    864 O         200.6656  109.3271    8.8263 O.3     123      M_A    0.0000
    865 H         199.9822  112.3162    9.1593 H       123      M_A    0.0000
    866 H         199.9588  111.0491   10.3674 H       123      M_A    0.0000
    867 H         202.3169  110.5041    8.9087 H       123      M_A    0.0000
    868 H         201.1841  110.9908    7.6563 H       123      M_A    0.0000
    869 C         199.5329  109.1708    8.0000 C.3     124      M_A    0.0000
    870 C         198.8171  107.8495    8.2629 C.3     124      M_A    0.0000
    871 O         198.7551  107.0707    7.0690 O.3     124      M_A    0.0000
    872 H         199.8353  109.2374    6.9487 H       124      M_A    0.0000
    873 H         198.8414  110.0049    8.1688 H       124      M_A    0.0000
    874 H         197.7781  108.0401    8.5604 H       124      M_A    0.0000
    875 H         199.2762  107.2894    9.0904 H       124      M_A    0.0000
    876 C         198.6487  105.6915    7.3461 C.3     125      M_A    0.0000
    877 C         199.9141  105.1451    8.0000 C.3     125      M_A    0.0000
    878 O         199.6564  103.8766    8.6004 O.3     125      M_A    0.0000
    879 H         198.4340  105.1478    6.4191 H       125      M_A    0.0000
    880 H         197.7888  105.5177    8.0042 H       125      M_A    0.0000
    881 H         200.2324  105.8111    8.8122 H       125      M_A    0.0000
    882 H         200.7556  105.0974    7.2938 H       125      M_A    0.0000
    883 C         200.0000  102.8100    7.7433 C.3     126      M_A    0.0000
    884 C         199.2395  101.5345    8.0922 C.3     126      M_A    0.0000
    885 O         199.4149  100.5547    7.0699 O.3     126      M_A    0.0000
    886 H         201.0807  102.6347    7.7930 H       126      M_A    0.0000
    887 H         199.7876  103.0941    6.7056 H       126      M_A    0.0000
    888 H         198.1628  101.7421    8.1381 H       126      M_A    0.0000
    889 H         199.5200  101.1447    9.0814 H       126      M_A    0.0000
    890 C         199.8283   99.3132    7.5971 C.3     127      M_A    0.0000
    891 C         198.9593   98.1652    7.0929 C.3     127      M_A    0.0000
    892 O         199.6633   96.9280    7.1901 O.3     127      M_A    0.0000
    893 H         199.8058   99.3553    8.6920 H       127      M_A    0.0000
    894 H         200.8746   99.1317    7.3233 H       127      M_A    0.0000
    895 H         198.7328   98.3076    6.0285 H       127      M_A    0.0000
    896 H         197.9901   98.1235    7.6106 H       127      M_A    0.0000
    897 C         198.7913   95.8444    7.4265 C.3     128      M_A    0.0000
    898 C         198.8358   94.8231    6.2942 C.3     128      M_A    0.0000
    899 O         198.5753   93.5127    6.7951 O.3     128      M_A    0.0000
    900 H         197.7704   96.2194    7.5612 H       128      M_A    0.0000
    901 H         199.0620   95.3591    8.3720 H       128      M_A    0.0000
    902 H         199.8427   94.7916    5.8588 H       128      M_A    0.0000
    903 H         198.1538   95.0877    5.4732 H       128      M_A    0.0000
    904 C         197.8997   92.7132    5.8491 C.3     129      M_A    0.0000
    905 C         197.7611   91.2696    6.3224 C.3     129      M_A    0.0000
    906 O         196.7677   90.5882    5.5577 O.3     129      M_A    0.0000
    907 H         198.4321   92.7507    4.8920 H       129      M_A    0.0000
    908 H         196.9060   93.1361    5.6587 H       129      M_A    0.0000
    909 H         197.4154   91.2493    7.3638 H       129      M_A    0.0000
    910 H         198.7227   90.7365    6.3071 H       129      M_A    0.0000
    911 C         197.1607   89.2708    5.2406 C.3     130      M_A    0.0000
    912 C         197.6155   88.5015    6.4769 C.3     130      M_A    0.0000
    913 O         197.3967   87.1025    6.3013 O.3     130      M_A    0.0000
    914 H         197.9616   89.2982    4.4931 H       130      M_A    0.0000
    915 H         196.3229   88.7453    4.7665 H       130      M_A    0.0000
    916 H         197.0146   88.8005    7.3451 H       130      M_A    0.0000
    917 H         198.6614   88.7200    6.7369 H       130      M_A    0.0000
    918 C         197.7819   86.6676    5.0157 C.3     131      M_A    0.0000
    919 C         199.1932   87.1256    4.6612 C.3     131      M_A    0.0000
    920 O         199.4291   86.9744    3.2622 O.3     131      M_A    0.0000
    921 H         197.0642   87.0372    4.2745 H       131      M_A    0.0000
    922 H         197.7267   85.5733    4.9699 H       131      M_A    0.0000
    923 H         199.9306   86.4902    5.1681 H       131      M_A    0.0000
    924 H         199.3899   88.1537    4.9980 H       131      M_A    0.0000
    925 C         198.9922   88.0991    2.5310 C.3     132      M_A    0.0000
    926 C         197.4759   88.2572    2.5858 C.3     132      M_A    0.0000
    927 O         197.0886   89.5276    2.0643 O.3     132      M_A    0.0000
    928 H         199.3287   88.0126    1.4916 H       132      M_A    0.0000
    929 H         199.4719   89.0011    2.9297 H       132      M_A    0.0000
    930 H         197.1355   88.2359    3.6289 H       132      M_A    0.0000
    931 H         196.9567   87.4328    2.0759 H       132      M_A    0.0000
    932 C         197.1962   90.5480    3.0325 C.3     133      M_A    0.0000
    933 C         198.3802   91.4695    2.7562 C.3     133      M_A    0.0000
    934 O         199.5750   90.9267    3.3164 O.3     133      M_A    0.0000
    935 H         197.2873   90.0992    4.0282 H       133      M_A    0.0000
    936 H         196.2690   91.1335    3.0488 H       133      M_A    0.0000
    937 H         198.2224   92.4381    3.2474 H       133      M_A    0.0000
    938 H         198.4946   91.6835    1.6837 H       133      M_A    0.0000
    939 C         199.3464   89.6784    3.9327 C.3     134      M_A    0.0000
    940 C         200.3801   89.3824    5.0149 C.3     134      M_A    0.0000
    941 O         201.6985   89.6125    4.5203 O.3     134      M_A    0.0000
    942 H         199.3539   88.8887    3.1729 H       134      M_A    0.0000
    943 H         198.3408   89.6671    4.3701 H       134      M_A    0.0000
    944 H         200.3365   88.3217    5.2932 H       134      M_A    0.0000
    945 H         200.1865   89.9504    5.9364 H       134      M_A    0.0000
    946 C         201.7281   89.6730    3.1111 C.3     135      M_A    0.0000
    947 C         200.6307   88.8191    2.4836 C.3     135      M_A    0.0000
    948 O         200.6587   88.9383    1.0621 O.3     135      M_A    0.0000
    949 H         202.7126   89.3520    2.7521 H       135      M_A    0.0000
    950 H         201.6143   90.7151    2.7891 H       135      M_A    0.0000
    951 H         199.6458   89.1822    2.8037 H       135      M_A    0.0000
    952 H         200.6907   87.7692    2.8049 H       135      M_A    0.0000
    953 H         201.3224   88.3408    0.6586 H       135      M_A    0.0000
    954 H         136.8481  225.6010   10.3231 H         0      M_A    0.0000
@<TRIPOS>BOND
     1     1     2      1
     2     1     4      1
     3     1     5      1
     4     1   954      1
     5     2     3      1
     6     2     6      1
     7     2     7      1
     8     3     8      1
     9     8     9      1
    10     8    11      1
    11     8    12      1
    12     9    10      1
    13     9    13      1
    14     9    14      1
    15    10    15      1
    16    15    16      1
    17    15    18      1
    18    15    19      1
    19    16    17      1
    20    16    20      1
    21    16    21      1
    22    17    22      1
    23    22    23      1
    24    22    25      1
    25    22    26      1
    26    23    24      1
    27    23    27      1
    28    23    28      1
    29    24    29      1
    30    29    30      1
    31    29    32      1
    32    29    33      1
    33    30    31      1
    34    30    34      1
    35    30    35      1
    36    31    36      1
    37    36    37      1
    38    36    39      1
    39    36    40      1
    40    37    38      1
    41    37    41      1
    42    37    42      1
    43    38    43      1
    44    43    44      1
    45    43    46      1
    46    43    47      1
    47    44    45      1
    48    44    48      1
    49    44    49      1
    50    45    50      1
    51    50    51      1
    52    50    53      1
    53    50    54      1
    54    51    52      1
    55    51    55      1
    56    51    56      1
    57    52    57      1
    58    57    58      1
    59    57    60      1
    60    57    61      1
    61    58    59      1
    62    58    62      1
    63    58    63      1
    64    59    64      1
    65    64    65      1
    66    64    67      1
    67    64    68      1
    68    65    66      1
    69    65    69      1
    70    65    70      1
    71    66    71      1
    72    71    72      1
    73    71    74      1
    74    71    75      1
    75    72    73      1
    76    72    76      1
    77    72    77      1
    78    73    78      1
    79    78    79      1
    80    78    81      1
    81    78    82      1
    82    79    80      1
    83    79    83      1
    84    79    84      1
    85    80    85      1
    86    85    86      1
    87    85    88      1
    88    85    89      1
    89    86    87      1
    90    86    90      1
    91    86    91      1
    92    87    92      1
    93    92    93      1
    94    92    95      1
    95    92    96      1
    96    93    94      1
    97    93    97      1
    98    93    98      1
    99    94    99      1
   100    99   100      1
   101    99   102      1
   102    99   103      1
   103   100   101      1
   104   100   104      1
   105   100   105      1
   106   101   106      1
   107   106   107      1
   108   106   109      1
   109   106   110      1
   110   107   108      1
   111   107   111      1
   112   107   112      1
   113   108   113      1
   114   113   114      1
   115   113   116      1
   116   113   117      1
   117   114   115      1
   118   114   118      1
   119   114   119      1
   120   115   120      1
   121   120   121      1
   122   120   123      1
   123   120   124      1
   124   121   122      1
   125   121   125      1
   126   121   126      1
   127   122   127      1
   128   127   128      1
   129   127   130      1
   130   127   131      1
   131   128   129      1
   132   128   132      1
   133   128   133      1
   134   129   134      1
   135   134   135      1
   136   134   137      1
   137   134   138      1
   138   135   136      1
   139   135   139      1
   140   135   140      1
   141   136   141      1
   142   141   142      1
   143   141   144      1
   144   141   145      1
   145   142   143      1
   146   142   146      1
   147   142   147      1
   148   143   148      1
   149   148   149      1
   150   148   151      1
   151   148   152      1
   152   149   150      1
   153   149   153      1
   154   149   154      1
   155   150   155      1
   156   155   156      1
   157   155   158      1
   158   155   159      1
   159   156   157      1
   160   156   160      1
   161   156   161      1
   162   157   162      1
   163   162   163      1
   164   162   165      1
   165   162   166      1
   166   163   164      1
   167   163   167      1
   168   163   168      1
   169   164   169      1
   170   169   170      1
   171   169   172      1
   172   169   173      1
   173   170   171      1
   174   170   174      1
   175   170   175      1
   176   171   176      1
   177   176   177      1
   178   176   179      1
   179   176   180      1
   180   177   178      1
   181   177   181      1
   182   177   182      1
   183   178   183      1
   184   183   184      1
   185   183   186      1
   186   183   187      1
   187   184   185      1
   188   184   188      1
   189   184   189      1
   190   185   190      1
   191   190   191      1
   192   190   193      1
   193   190   194      1
   194   191   192      1
   195   191   195      1
   196   191   196      1
   197   192   197      1
   198   197   198      1
   199   197   200      1
   200   197   201      1
   201   198   199      1
   202   198   202      1
   203   198   203      1
   204   199   204      1
   205   204   205      1
   206   204   207      1
   207   204   208      1
   208   205   206      1
   209   205   209      1
   210   205   210      1
   211   206   211      1
   212   211   212      1
   213   211   214      1
   214   211   215      1
   215   212   213      1
   216   212   216      1
   217   212   217      1
   218   213   218      1
   219   218   219      1
   220   218   221      1
   221   218   222      1
   222   219   220      1
   223   219   223      1
   224   219   224      1
   225   220   225      1
   226   225   226      1
   227   225   228      1
   228   225   229      1
   229   226   227      1
   230   226   230      1
   231   226   231      1
   232   227   232      1
   233   232   233      1
   234   232   235      1
   235   232   236      1
   236   233   234      1
   237   233   237      1
   238   233   238      1
   239   234   239      1
   240   239   240      1
   241   239   242      1
   242   239   243      1
   243   240   241      1
   244   240   244      1
   245   240   245      1
   246   241   246      1
   247   246   247      1
   248   246   249      1
   249   246   250      1
   250   247   248      1
   251   247   251      1
   252   247   252      1
   253   248   253      1
   254   253   254      1
   255   253   256      1
   256   253   257      1
   257   254   255      1
   258   254   258      1
   259   254   259      1
   260   255   260      1
   261   260   261      1
   262   260   263      1
   263   260   264      1
   264   261   262      1
   265   261   265      1
   266   261   266      1
   267   262   267      1
   268   267   268      1
   269   267   270      1
   270   267   271      1
   271   268   269      1
   272   268   272      1
   273   268   273      1
   274   269   274      1
   275   274   275      1
   276   274   277      1
   277   274   278      1
   278   275   276      1
   279   275   279      1
   280   275   280      1
   281   276   281      1
   282   281   282      1
   283   281   284      1
   284   281   285      1
   285   282   283      1
   286   282   286      1
   287   282   287      1
   288   283   288      1
   289   288   289      1
   290   288   291      1
   291   288   292      1
   292   289   290      1
   293   289   293      1
   294   289   294      1
   295   290   295      1
   296   295   296      1
   297   295   298      1
   298   295   299      1
   299   296   297      1
   300   296   300      1
   301   296   301      1
   302   297   302      1
   303   302   303      1
   304   302   305      1
   305   302   306      1
   306   303   304      1
   307   303   307      1
   308   303   308      1
   309   304   309      1
   310   309   310      1
   311   309   312      1
   312   309   313      1
   313   310   311      1
   314   310   314      1
   315   310   315      1
   316   311   316      1
   317   316   317      1
   318   316   319      1
   319   316   320      1
   320   317   318      1
   321   317   321      1
   322   317   322      1
   323   318   323      1
   324   323   324      1
   325   323   326      1
   326   323   327      1
   327   324   325      1
   328   324   328      1
   329   324   329      1
   330   325   330      1
   331   330   331      1
   332   330   333      1
   333   330   334      1
   334   331   332      1
   335   331   335      1
   336   331   336      1
   337   332   337      1
   338   337   338      1
   339   337   340      1
   340   337   341      1
   341   338   339      1
   342   338   342      1
   343   338   343      1
   344   339   344      1
   345   344   345      1
   346   344   347      1
   347   344   348      1
   348   345   346      1
   349   345   349      1
   350   345   350      1
   351   346   351      1
   352   351   352      1
   353   351   354      1
   354   351   355      1
   355   352   353      1
   356   352   356      1
   357   352   357      1
   358   353   358      1
   359   358   359      1
   360   358   361      1
   361   358   362      1
   362   359   360      1
   363   359   363      1
   364   359   364      1
   365   360   365      1
   366   365   366      1
   367   365   368      1
   368   365   369      1
   369   366   367      1
   370   366   370      1
   371   366   371      1
   372   367   372      1
   373   372   373      1
   374   372   375      1
   375   372   376      1
   376   373   374      1
   377   373   377      1
   378   373   378      1
   379   374   379      1
   380   379   380      1
   381   379   382      1
   382   379   383      1
   383   380   381      1
   384   380   384      1
   385   380   385      1
   386   381   386      1
   387   386   387      1
   388   386   389      1
   389   386   390      1
   390   387   388      1
   391   387   391      1
   392   387   392      1
   393   388   393      1
   394   393   394      1
   395   393   396      1
   396   393   397      1
   397   394   395      1
   398   394   398      1
   399   394   399      1
   400   395   400      1
   401   400   401      1
   402   400   403      1
   403   400   404      1
   404   401   402      1
   405   401   405      1
   406   401   406      1
   407   402   407      1
   408   407   408      1
   409   407   410      1
   410   407   411      1
   411   408   409      1
   412   408   412      1
   413   408   413      1
   414   409   414      1
   415   414   415      1
   416   414   417      1
   417   414   418      1
   418   415   416      1
   419   415   419      1
   420   415   420      1
   421   416   421      1
   422   421   422      1
   423   421   424      1
   424   421   425      1
   425   422   423      1
   426   422   426      1
   427   422   427      1
   428   423   428      1
   429   428   429      1
   430   428   431      1
   431   428   432      1
   432   429   430      1
   433   429   433      1
   434   429   434      1
   435   430   435      1
   436   435   436      1
   437   435   438      1
   438   435   439      1
   439   436   437      1
   440   436   440      1
   441   436   441      1
   442   437   442      1
   443   442   443      1
   444   442   445      1
   445   442   446      1
   446   443   444      1
   447   443   447      1
   448   443   448      1
   449   444   449      1
   450   449   450      1
   451   449   452      1
   452   449   453      1
   453   450   451      1
   454   450   454      1
   455   450   455      1
   456   451   456      1
   457   456   457      1
   458   456   459      1
   459   456   460      1
   460   457   458      1
   461   457   461      1
   462   457   462      1
   463   458   463      1
   464   463   464      1
   465   463   466      1
   466   463   467      1
   467   464   465      1
   468   464   468      1
   469   464   469      1
   470   465   470      1
   471   470   471      1
   472   470   473      1
   473   470   474      1
   474   471   472      1
   475   471   475      1
   476   471   476      1
   477   472   477      1
   478   477   478      1
   479   477   480      1
   480   477   481      1
   481   478   479      1
   482   478   482      1
   483   478   483      1
   484   479   484      1
   485   484   485      1
   486   484   487      1
   487   484   488      1
   488   485   486      1
   489   485   489      1
   490   485   490      1
   491   486   491      1
   492   491   492      1
   493   491   494      1
   494   491   495      1
   495   492   493      1
   496   492   496      1
   497   492   497      1
   498   493   498      1
   499   498   499      1
   500   498   501      1
   501   498   502      1
   502   499   500      1
   503   499   503      1
   504   499   504      1
   505   500   505      1
   506   505   506      1
   507   505   508      1
   508   505   509      1
   509   506   507      1
   510   506   510      1
   511   506   511      1
   512   507   512      1
   513   512   513      1
   514   512   515      1
   515   512   516      1
   516   513   514      1
   517   513   517      1
   518   513   518      1
   519   514   519      1
   520   519   520      1
   521   519   522      1
   522   519   523      1
   523   520   521      1
   524   520   524      1
   525   520   525      1
   526   521   526      1
   527   526   527      1
   528   526   529      1
   529   526   530      1
   530   527   528      1
   531   527   531      1
   532   527   532      1
   533   528   533      1
   534   533   534      1
   535   533   536      1
   536   533   537      1
   537   534   535      1
   538   534   538      1
   539   534   539      1
   540   535   540      1
   541   540   541      1
   542   540   543      1
   543   540   544      1
   544   541   542      1
   545   541   545      1
   546   541   546      1
   547   542   547      1
   548   547   548      1
   549   547   550      1
   550   547   551      1
   551   548   549      1
   552   548   552      1
   553   548   553      1
   554   549   554      1
   555   554   555      1
   556   554   557      1
   557   554   558      1
   558   555   556      1
   559   555   559      1
   560   555   560      1
   561   556   561      1
   562   561   562      1
   563   561   564      1
   564   561   565      1
   565   562   563      1
   566   562   566      1
   567   562   567      1
   568   563   568      1
   569   568   569      1
   570   568   571      1
   571   568   572      1
   572   569   570      1
   573   569   573      1
   574   569   574      1
   575   570   575      1
   576   575   576      1
   577   575   578      1
   578   575   579      1
   579   576   577      1
   580   576   580      1
   581   576   581      1
   582   577   582      1
   583   582   583      1
   584   582   585      1
   585   582   586      1
   586   583   584      1
   587   583   587      1
   588   583   588      1
   589   584   589      1
   590   589   590      1
   591   589   592      1
   592   589   593      1
   593   590   591      1
   594   590   594      1
   595   590   595      1
   596   591   596      1
   597   596   597      1
   598   596   599      1
   599   596   600      1
   600   597   598      1
   601   597   601      1
   602   597   602      1
   603   598   603      1
   604   603   604      1
   605   603   606      1
   606   603   607      1
   607   604   605      1
   608   604   608      1
   609   604   609      1
   610   605   610      1
   611   610   611      1
   612   610   613      1
   613   610   614      1
   614   611   612      1
   615   611   615      1
   616   611   616      1
   617   612   617      1
   618   617   618      1
   619   617   620      1
   620   617   621      1
   621   618   619      1
   622   618   622      1
   623   618   623      1
   624   619   624      1
   625   624   625      1
   626   624   627      1
   627   624   628      1
   628   625   626      1
   629   625   629      1
   630   625   630      1
   631   626   631      1
   632   631   632      1
   633   631   634      1
   634   631   635      1
   635   632   633      1
   636   632   636      1
   637   632   637      1
   638   633   638      1
   639   638   639      1
   640   638   641      1
   641   638   642      1
   642   639   640      1
   643   639   643      1
   644   639   644      1
   645   640   645      1
   646   645   646      1
   647   645   648      1
   648   645   649      1
   649   646   647      1
   650   646   650      1
   651   646   651      1
   652   647   652      1
   653   652   653      1
   654   652   655      1
   655   652   656      1
   656   653   654      1
   657   653   657      1
   658   653   658      1
   659   654   659      1
   660   659   660      1
   661   659   662      1
   662   659   663      1
   663   660   661      1
   664   660   664      1
   665   660   665      1
   666   661   666      1
   667   666   667      1
   668   666   669      1
   669   666   670      1
   670   667   668      1
   671   667   671      1
   672   667   672      1
   673   668   673      1
   674   673   674      1
   675   673   676      1
   676   673   677      1
   677   674   675      1
   678   674   678      1
   679   674   679      1
   680   675   680      1
   681   680   681      1
   682   680   683      1
   683   680   684      1
   684   681   682      1
   685   681   685      1
   686   681   686      1
   687   682   687      1
   688   687   688      1
   689   687   690      1
   690   687   691      1
   691   688   689      1
   692   688   692      1
   693   688   693      1
   694   689   694      1
   695   694   695      1
   696   694   697      1
   697   694   698      1
   698   695   696      1
   699   695   699      1
   700   695   700      1
   701   696   701      1
   702   701   702      1
   703   701   704      1
   704   701   705      1
   705   702   703      1
   706   702   706      1
   707   702   707      1
   708   703   708      1
   709   708   709      1
   710   708   711      1
   711   708   712      1
   712   709   710      1
   713   709   713      1
   714   709   714      1
   715   710   715      1
   716   715   716      1
   717   715   718      1
   718   715   719      1
   719   716   717      1
   720   716   720      1
   721   716   721      1
   722   717   722      1
   723   722   723      1
   724   722   725      1
   725   722   726      1
   726   723   724      1
   727   723   727      1
   728   723   728      1
   729   724   729      1
   730   729   730      1
   731   729   732      1
   732   729   733      1
   733   730   731      1
   734   730   734      1
   735   730   735      1
   736   731   736      1
   737   736   737      1
   738   736   739      1
   739   736   740      1
   740   737   738      1
   741   737   741      1
   742   737   742      1
   743   738   743      1
   744   743   744      1
   745   743   746      1
   746   743   747      1
   747   744   745      1
   748   744   748      1
   749   744   749      1
   750   745   750      1
   751   750   751      1
   752   750   753      1
   753   750   754      1
   754   751   752      1
   755   751   755      1
   756   751   756      1
   757   752   757      1
   758   757   758      1
   759   757   760      1
   760   757   761      1
   761   758   759      1
   762   758   762      1
   763   758   763      1
   764   759   764      1
   765   764   765      1
   766   764   767      1
   767   764   768      1
   768   765   766      1
   769   765   769      1
   770   765   770      1
   771   766   771      1
   772   771   772      1
   773   771   774      1
   774   771   775      1
   775   772   773      1
   776   772   776      1
   777   772   777      1
   778   773   778      1
   779   778   779      1
   780   778   781      1
   781   778   782      1
   782   779   780      1
   783   779   783      1
   784   779   784      1
   785   780   785      1
   786   785   786      1
   787   785   788      1
   788   785   789      1
   789   786   787      1
   790   786   790      1
   791   786   791      1
   792   787   792      1
   793   792   793      1
   794   792   795      1
   795   792   796      1
   796   793   794      1
   797   793   797      1
   798   793   798      1
   799   794   799      1
   800   799   800      1
   801   799   802      1
   802   799   803      1
   803   800   801      1
   804   800   804      1
   805   800   805      1
   806   801   806      1
   807   806   807      1
   808   806   809      1
   809   806   810      1
   810   807   808      1
   811   807   811      1
   812   807   812      1
   813   808   813      1
   814   813   814      1
   815   813   816      1
   816   813   817      1
   817   814   815      1
   818   814   818      1
   819   814   819      1
   820   815   820      1
   821   820   821      1
   822   820   823      1
   823   820   824      1
   824   821   822      1
   825   821   825      1
   826   821   826      1
   827   822   827      1
   828   827   828      1
   829   827   830      1
   830   827   831      1
   831   828   829      1
   832   828   832      1
   833   828   833      1
   834   829   834      1
   835   834   835      1
   836   834   837      1
   837   834   838      1
   838   835   836      1
   839   835   839      1
   840   835   840      1
   841   836   841      1
   842   841   842      1
   843   841   844      1
   844   841   845      1
   845   842   843      1
   846   842   846      1
   847   842   847      1
   848   843   848      1
   849   848   849      1
   850   848   851      1
   851   848   852      1
   852   849   850      1
   853   849   853      1
   854   849   854      1
   855   850   855      1
   856   855   856      1
   857   855   858      1
   858   855   859      1
   859   856   857      1
   860   856   860      1
   861   856   861      1
   862   857   862      1
   863   862   863      1
   864   862   865      1
   865   862   866      1
   866   863   864      1
   867   863   867      1
   868   863   868      1
   869   864   869      1
   870   869   870      1
   871   869   872      1
   872   869   873      1
   873   870   871      1
   874   870   874      1
   875   870   875      1
   876   871   876      1
   877   876   877      1
   878   876   879      1
   879   876   880      1
   880   877   878      1
   881   877   881      1
   882   877   882      1
   883   878   883      1
   884   883   884      1
   885   883   886      1
   886   883   887      1
   887   884   885      1
   888   884   888      1
   889   884   889      1
   890   885   890      1
   891   890   891      1
   892   890   893      1
   893   890   894      1
   894   891   892      1
   895   891   895      1
   896   891   896      1
   897   892   897      1
   898   897   898      1
   899   897   900      1
   900   897   901      1
   901   898   899      1
   902   898   902      1
   903   898   903      1
   904   899   904      1
   905   904   905      1
   906   904   907      1
   907   904   908      1
   908   905   906      1
   909   905   909      1
   910   905   910      1
   911   906   911      1
   912   911   912      1
   913   911   914      1
   914   911   915      1
   915   912   913      1
   916   912   916      1
   917   912   917      1
   918   913   918      1
   919   918   919      1
   920   918   921      1
   921   918   922      1
   922   919   920      1
   923   919   923      1
   924   919   924      1
   925   920   925      1
   926   925   926      1
   927   925   928      1
   928   925   929      1
   929   926   927      1
   930   926   930      1
   931   926   931      1
   932   927   932      1
   933   932   933      1
   934   932   935      1
   935   932   936      1
   936   933   934      1
   937   933   937      1
   938   933   938      1
   939   934   939      1
   940   939   940      1
   941   939   942      1
   942   939   943      1
   943   940   941      1
   944   940   944      1
   945   940   945      1
   946   941   946      1
   947   946   947      1
   948   946   949      1
   949   946   950      1
   950   947   948      1
   951   947   951      1
   952   947   952      1
   953   948   953      1
