###
### Created by PolyChef-cpp17 on Mon May 12 10:39:12 2025
###

@<TRIPOS>MOLECULE
NO_INFO
261 260 1 0 0
SMALL
USER_CHARGES


@<TRIPOS>ATOM
      1 C          43.7462  150.8398   78.3892 C.3       0      M_A    0.0000
      2 C          44.0016  149.9383   79.5931 C.3       0      M_A    0.0000
      3 O          44.8149  148.8271   79.2195 O.3       0      M_A    0.0000
      4 H          43.7470  150.2390   77.4717 H         0      M_A    0.0000
      5 H          44.5607  151.5641   78.2764 H         0      M_A    0.0000
      6 H          44.4337  150.4924   80.4389 H         0      M_A    0.0000
      7 H          43.0537  149.5186   79.9534 H         0      M_A    0.0000
      8 C          46.1681  149.1949   79.0644 C.3       1      M_A    0.0000
      9 C          47.0249  148.0218   78.5987 C.3       1      M_A    0.0000
     10 O          48.3402  148.4659   78.2689 O.3       1      M_A    0.0000
     11 H          46.2415  150.0156   78.3407 H         1      M_A    0.0000
     12 H          46.5496  149.5928   80.0116 H         1      M_A    0.0000
     13 H          47.0439  147.2066   79.3364 H         1      M_A    0.0000
     14 H          46.6049  147.5941   77.6794 H         1      M_A    0.0000
     15 C          49.0940  148.7767   79.4202 C.3       2      M_A    0.0000
     16 C          50.2780  147.8308   79.5953 C.3       2      M_A    0.0000
     17 O          51.3430  148.4878   80.2808 O.3       2      M_A    0.0000
     18 H          49.4544  149.8101   79.3513 H         2      M_A    0.0000
     19 H          48.4450  148.7416   80.3026 H         2      M_A    0.0000
     20 H          49.9882  146.8955   80.0956 H         2      M_A    0.0000
     21 H          50.6750  147.5434   78.6133 H         2      M_A    0.0000
     22 C          52.0898  147.5912   81.0737 C.3       3      M_A    0.0000
     23 C          53.4029  148.2088   81.5444 C.3       3      M_A    0.0000
     24 O          54.3022  147.1919   81.9838 O.3       3      M_A    0.0000
     25 H          51.4922  147.2887   81.9420 H         3      M_A    0.0000
     26 H          52.2825  146.6741   80.5056 H         3      M_A    0.0000
     27 H          53.8574  148.8484   80.7739 H         3      M_A    0.0000
     28 H          53.2217  148.8555   82.4124 H         3      M_A    0.0000
     29 C          55.6430  147.5091   81.6804 C.3       4      M_A    0.0000
     30 C          55.9902  148.9412   82.0747 C.3       4      M_A    0.0000
     31 O          57.1314  148.9591   82.9311 O.3       4      M_A    0.0000
     32 H          56.3090  146.8110   82.2017 H         4      M_A    0.0000
     33 H          55.8219  147.3547   80.6103 H         4      M_A    0.0000
     34 H          56.1305  149.5882   81.1967 H         4      M_A    0.0000
     35 H          55.1660  149.3804   82.6511 H         4      M_A    0.0000
     36 C          57.2115  150.1552   83.6750 C.3       5      M_A    0.0000
     37 C          58.5982  150.3560   84.2783 C.3       5      M_A    0.0000
     38 O          58.5608  151.3637   85.2878 O.3       5      M_A    0.0000
     39 H          56.9648  151.0044   83.0264 H         5      M_A    0.0000
     40 H          56.4507  150.1468   84.4637 H         5      M_A    0.0000
     41 H          59.0229  149.4155   84.6580 H         5      M_A    0.0000
     42 H          59.2919  150.7173   83.5084 H         5      M_A    0.0000
     43 C          59.6559  151.2631   86.1715 C.3       6      M_A    0.0000
     44 C          60.9278  150.8266   85.4511 C.3       6      M_A    0.0000
     45 O          62.0469  150.8906   86.3339 O.3       6      M_A    0.0000
     46 H          59.8213  152.2320   86.6578 H         6      M_A    0.0000
     47 H          59.4132  150.5593   86.9758 H         6      M_A    0.0000
     48 H          60.8237  149.8301   84.9980 H         6      M_A    0.0000
     49 H          61.1461  151.5173   84.6267 H         6      M_A    0.0000
     50 C          63.0521  149.9678   85.9758 C.3       7      M_A    0.0000
     51 C          63.2646  149.9179   84.4660 C.3       7      M_A    0.0000
     52 O          64.6484  149.7471   84.1633 O.3       7      M_A    0.0000
     53 H          63.9911  150.2419   86.4717 H         7      M_A    0.0000
     54 H          62.7887  148.9744   86.3563 H         7      M_A    0.0000
     55 H          62.6453  149.1452   83.9878 H         7      M_A    0.0000
     56 H          62.9664  150.8729   84.0149 H         7      M_A    0.0000
     57 C          64.9867  148.3872   83.9999 C.3       8      M_A    0.0000
     58 C          66.4896  148.1575   84.1260 C.3       8      M_A    0.0000
     59 O          66.8201  146.8165   83.7678 O.3       8      M_A    0.0000
     60 H          64.4576  147.7879   84.7506 H         8      M_A    0.0000
     61 H          64.6282  148.0358   83.0258 H         8      M_A    0.0000
     62 H          67.0687  148.8886   83.5436 H         8      M_A    0.0000
     63 H          66.8003  148.2824   85.1712 H         8      M_A    0.0000
     64 C          68.2026  146.6606   83.5337 C.3       9      M_A    0.0000
     65 C          69.0134  147.7982   84.1466 C.3       9      M_A    0.0000
     66 O          70.3050  147.3347   84.5375 O.3       9      M_A    0.0000
     67 H          68.5366  145.7030   83.9508 H         9      M_A    0.0000
     68 H          68.3861  146.6004   82.4549 H         9      M_A    0.0000
     69 H          69.0790  148.6663   83.4749 H         9      M_A    0.0000
     70 H          68.5242  148.1548   85.0620 H         9      M_A    0.0000
     71 C          70.7292  146.2397   83.7557 C.3      10      M_A    0.0000
     72 C          72.0999  145.7298   84.1901 C.3      10      M_A    0.0000
     73 O          72.0947  144.3061   84.2840 O.3      10      M_A    0.0000
     74 H          69.9931  145.4305   83.8329 H        10      M_A    0.0000
     75 H          70.7484  146.5305   82.6992 H        10      M_A    0.0000
     76 H          72.9022  146.0910   83.5305 H        10      M_A    0.0000
     77 H          72.3365  146.1037   85.1944 H        10      M_A    0.0000
     78 C          73.3624  143.7561   84.0000 C.3      11      M_A    0.0000
     79 C          74.4932  144.6478   84.5035 C.3      11      M_A    0.0000
     80 O          75.5562  143.8546   85.0296 O.3      11      M_A    0.0000
     81 H          73.4408  142.7647   84.4620 H        11      M_A    0.0000
     82 H          73.4572  143.5943   82.9202 H        11      M_A    0.0000
     83 H          74.8486  145.3409   83.7273 H        11      M_A    0.0000
     84 H          74.1359  145.2722   85.3323 H        11      M_A    0.0000
     85 C          75.7870  142.7016   84.2500 C.3      12      M_A    0.0000
     86 C          77.0662  142.8200   83.4272 C.3      12      M_A    0.0000
     87 O          78.0850  141.9796   83.9671 O.3      12      M_A    0.0000
     88 H          75.8503  141.8253   84.9062 H        12      M_A    0.0000
     89 H          74.9270  142.5259   83.5938 H        12      M_A    0.0000
     90 H          76.8914  142.6139   82.3613 H        12      M_A    0.0000
     91 H          77.4522  143.8459   83.4821 H        12      M_A    0.0000
     92 C          79.3738  142.5121   83.7527 C.3      13      M_A    0.0000
     93 C          79.5323  143.0616   82.3384 C.3      13      M_A    0.0000
     94 O          80.8586  143.5486   82.1392 O.3      13      M_A    0.0000
     95 H          79.5642  143.3091   84.4816 H        13      M_A    0.0000
     96 H          80.1258  141.7391   83.9474 H        13      M_A    0.0000
     97 H          79.2517  142.3219   81.5748 H        13      M_A    0.0000
     98 H          78.8642  143.9203   82.1941 H        13      M_A    0.0000
     99 C          81.8118  142.5094   82.1809 C.3      14      M_A    0.0000
    100 C          83.1106  142.9028   81.4841 C.3      14      M_A    0.0000
    101 O          84.2090  142.1735   82.0296 O.3      14      M_A    0.0000
    102 H          82.0183  142.2466   83.2253 H        14      M_A    0.0000
    103 H          81.3906  141.6084   81.7206 H        14      M_A    0.0000
    104 H          83.0455  142.7841   80.3928 H        14      M_A    0.0000
    105 H          83.3253  143.9638   81.6652 H        14      M_A    0.0000
    106 C          85.1883  141.8908   81.0543 C.3      15      M_A    0.0000
    107 C          86.4848  142.6512   81.3152 C.3      15      M_A    0.0000
    108 O          87.5758  142.0194   80.6471 O.3      15      M_A    0.0000
    109 H          85.3890  140.8127   81.0420 H        15      M_A    0.0000
    110 H          84.7963  142.1361   80.0608 H        15      M_A    0.0000
    111 H          86.4016  143.7135   81.0434 H        15      M_A    0.0000
    112 H          86.7236  142.6263   82.3861 H        15      M_A    0.0000
    113 C          88.7881  142.1826   81.3500 C.3      16      M_A    0.0000
    114 C          89.9167  142.6458   80.4342 C.3      16      M_A    0.0000
    115 O          91.1268  141.9580   80.7481 O.3      16      M_A    0.0000
    116 H          88.6455  142.9111   82.1572 H        16      M_A    0.0000
    117 H          89.0571  141.2394   81.8388 H        16      M_A    0.0000
    118 H          89.6541  142.5423   79.3714 H        16      M_A    0.0000
    119 H          90.1174  143.7122   80.5983 H        16      M_A    0.0000
    120 C          92.2290  142.4846   80.0424 C.3      17      M_A    0.0000
    121 C          92.9366  141.4153   79.2159 C.3      17      M_A    0.0000
    122 O          94.0466  141.9787   78.5185 O.3      17      M_A    0.0000
    123 H          91.8875  143.2932   79.3849 H        17      M_A    0.0000
    124 H          92.9290  142.9453   80.7486 H        17      M_A    0.0000
    125 H          93.2364  140.5524   79.8279 H        17      M_A    0.0000
    126 H          92.2563  141.0255   78.4480 H        17      M_A    0.0000
    127 C          94.3555  141.2530   77.3487 C.3      18      M_A    0.0000
    128 C          95.5786  140.3617   77.5405 C.3      18      M_A    0.0000
    129 O          96.2523  140.1666   76.2980 O.3      18      M_A    0.0000
    130 H          93.4929  140.6391   77.0628 H        18      M_A    0.0000
    131 H          94.5185  141.9497   76.5186 H        18      M_A    0.0000
    132 H          96.2561  140.7521   78.3136 H        18      M_A    0.0000
    133 H          95.2659  139.3662   77.8808 H        18      M_A    0.0000
    134 C          97.2724  139.1974   76.3999 C.3      19      M_A    0.0000
    135 C          98.2861  139.5526   77.4832 C.3      19      M_A    0.0000
    136 O          99.6064  139.2167   77.0591 O.3      19      M_A    0.0000
    137 H          96.8255  138.2202   76.6190 H        19      M_A    0.0000
    138 H          97.7727  139.0900   75.4308 H        19      M_A    0.0000
    139 H          98.2124  140.6068   77.7872 H        19      M_A    0.0000
    140 H          98.0923  138.9587   78.3855 H        19      M_A    0.0000
    141 C         100.5827  140.0000   77.7099 C.3      20      M_A    0.0000
    142 C         101.5167  140.6833   76.7160 C.3      20      M_A    0.0000
    143 O         102.3164  141.6629   77.3767 O.3      20      M_A    0.0000
    144 H         100.0877  140.7563   78.3310 H        20      M_A    0.0000
    145 H         101.1557  139.3706   78.4002 H        20      M_A    0.0000
    146 H         102.1338  139.9588   76.1650 H        20      M_A    0.0000
    147 H         100.9298  141.2228   75.9618 H        20      M_A    0.0000
    148 C         103.4601  141.0920   77.9738 C.3      21      M_A    0.0000
    149 C         104.6444  141.0579   77.0129 C.3      21      M_A    0.0000
    150 O         105.8629  140.8694   77.7309 O.3      21      M_A    0.0000
    151 H         103.7279  141.6657   78.8693 H        21      M_A    0.0000
    152 H         103.2238  140.0804   78.3230 H        21      M_A    0.0000
    153 H         104.5151  140.3012   76.2257 H        21      M_A    0.0000
    154 H         104.7363  142.0231   76.4987 H        21      M_A    0.0000
    155 C         106.8302  140.1949   76.9566 C.3      22      M_A    0.0000
    156 C         106.8781  140.7203   75.5252 C.3      22      M_A    0.0000
    157 O         107.9414  140.1012   74.8028 O.3      22      M_A    0.0000
    158 H         107.8154  140.3092   77.4247 H        22      M_A    0.0000
    159 H         106.6171  139.1199   76.9608 H        22      M_A    0.0000
    160 H         105.9137  140.6022   75.0102 H        22      M_A    0.0000
    161 H         107.0942  141.7962   75.5292 H        22      M_A    0.0000
    162 C         107.8254  140.3126   73.4128 C.3      23      M_A    0.0000
    163 C         106.6106  139.5972   72.8298 C.3      23      M_A    0.0000
    164 O         106.3320  140.0793   71.5161 O.3      23      M_A    0.0000
    165 H         107.7509  141.3884   73.2133 H        23      M_A    0.0000
    166 H         108.7413  139.9758   72.9141 H        23      M_A    0.0000
    167 H         106.7291  138.5041   72.8452 H        23      M_A    0.0000
    168 H         105.7213  139.8181   73.4338 H        23      M_A    0.0000
    169 C         105.9394  139.0396   70.6470 C.3      24      M_A    0.0000
    170 C         105.9930  139.4719   69.1850 C.3      24      M_A    0.0000
    171 O         106.1492  138.3362   68.3355 O.3      24      M_A    0.0000
    172 H         106.5924  138.1718   70.7994 H        24      M_A    0.0000
    173 H         104.9287  138.7065   70.9088 H        24      M_A    0.0000
    174 H         105.1184  140.0750   68.9010 H        24      M_A    0.0000
    175 H         106.8719  140.1067   69.0150 H        24      M_A    0.0000
    176 C         105.3058  138.4044   67.2065 C.3      25      M_A    0.0000
    177 C         105.2258  137.0672   66.4768 C.3      25      M_A    0.0000
    178 O         103.9506  136.9148   65.8550 O.3      25      M_A    0.0000
    179 H         104.3018  138.7141   67.5205 H        25      M_A    0.0000
    180 H         105.6649  139.1872   66.5288 H        25      M_A    0.0000
    181 H         106.0471  136.9406   65.7567 H        25      M_A    0.0000
    182 H         105.3181  136.2431   67.1957 H        25      M_A    0.0000
    183 C         103.9060  135.7795   65.0187 C.3      26      M_A    0.0000
    184 C         104.2158  134.4977   65.7855 C.3      26      M_A    0.0000
    185 O         103.3645  133.4388   65.3499 O.3      26      M_A    0.0000
    186 H         102.9127  135.7042   64.5601 H        26      M_A    0.0000
    187 H         104.6119  135.9078   64.1903 H        26      M_A    0.0000
    188 H         105.2777  134.2212   65.7145 H        26      M_A    0.0000
    189 H         104.0068  134.6412   66.8533 H        26      M_A    0.0000
    190 C         103.9485  132.6904   64.3062 C.3      27      M_A    0.0000
    191 C         103.1136  131.4639   63.9518 C.3      27      M_A    0.0000
    192 O         103.9523  130.4096   63.4816 O.3      27      M_A    0.0000
    193 H         104.0623  133.3277   63.4210 H        27      M_A    0.0000
    194 H         104.9624  132.3906   64.5945 H        27      M_A    0.0000
    195 H         102.4827  131.1379   64.7913 H        27      M_A    0.0000
    196 H         102.4290  131.7032   63.1281 H        27      M_A    0.0000
    197 C         104.4613  129.6304   64.5418 C.3      28      M_A    0.0000
    198 C         103.3611  128.8418   65.2452 C.3      28      M_A    0.0000
    199 O         103.2314  127.5439   64.6670 O.3      28      M_A    0.0000
    200 H         105.2201  128.9400   64.1544 H        28      M_A    0.0000
    201 H         104.9806  130.2796   65.2560 H        28      M_A    0.0000
    202 H         103.5220  128.7887   66.3317 H        28      M_A    0.0000
    203 H         102.3940  129.3406   65.1022 H        28      M_A    0.0000
    204 C         102.7255  126.6051   65.5907 C.3      29      M_A    0.0000
    205 C         101.2015  126.5449   65.5610 C.3      29      M_A    0.0000
    206 O         100.7493  125.2261   65.8645 O.3      29      M_A    0.0000
    207 H         103.1384  125.6144   65.3657 H        29      M_A    0.0000
    208 H         103.0771  126.8571   66.5976 H        29      M_A    0.0000
    209 H         100.7462  127.2938   66.2251 H        29      M_A    0.0000
    210 H         100.8382  126.7698   64.5501 H        29      M_A    0.0000
    211 C          99.3608  125.1904   66.1118 C.3      30      M_A    0.0000
    212 C          98.6228  126.2954   65.3624 C.3      30      M_A    0.0000
    213 O          97.3359  125.8410   64.9462 O.3      30      M_A    0.0000
    214 H          98.9630  124.2130   65.8134 H        30      M_A    0.0000
    215 H          99.1791  125.2740   67.1893 H        30      M_A    0.0000
    216 H          98.5560  127.2206   65.9530 H        30      M_A    0.0000
    217 H          99.1687  126.5548   64.4464 H        30      M_A    0.0000
    218 C          96.4356  126.9111   64.7598 C.3      31      M_A    0.0000
    219 C          97.1139  128.1177   64.1185 C.3      31      M_A    0.0000
    220 O          96.6269  128.3160   62.7921 O.3      31      M_A    0.0000
    221 H          95.6011  126.5792   64.1304 H        31      M_A    0.0000
    222 H          95.9945  127.1898   65.7235 H        31      M_A    0.0000
    223 H          97.0067  129.0247   64.7309 H        31      M_A    0.0000
    224 H          98.1921  127.9352   64.0265 H        31      M_A    0.0000
    225 C          97.0160  127.2712   61.9277 C.3      32      M_A    0.0000
    226 C          96.8042  127.6387   60.4624 C.3      32      M_A    0.0000
    227 O          97.9542  127.2939   59.6913 O.3      32      M_A    0.0000
    228 H          98.0723  127.0314   62.0990 H        32      M_A    0.0000
    229 H          96.4561  126.3627   62.1772 H        32      M_A    0.0000
    230 H          95.8892  127.1874   60.0521 H        32      M_A    0.0000
    231 H          96.6817  128.7248   60.3635 H        32      M_A    0.0000
    232 C          99.0744  128.0780   60.0388 C.3      33      M_A    0.0000
    233 C         100.2223  127.8964   59.0506 C.3      33      M_A    0.0000
    234 O         100.5696  129.1459   58.4557 O.3      33      M_A    0.0000
    235 H          98.7821  129.1344   60.0747 H        33      M_A    0.0000
    236 H          99.4005  127.8205   61.0528 H        33      M_A    0.0000
    237 H         101.0930  127.4110   59.5148 H        33      M_A    0.0000
    238 H          99.9076  127.2410   58.2285 H        33      M_A    0.0000
    239 C         101.2764  128.9740   57.2469 C.3      34      M_A    0.0000
    240 C         102.1761  127.7427   57.2861 C.3      34      M_A    0.0000
    241 O         102.8829  127.6030   56.0546 O.3      34      M_A    0.0000
    242 H         100.5638  128.8840   56.4183 H        34      M_A    0.0000
    243 H         101.8690  129.8722   57.0391 H        34      M_A    0.0000
    244 H         102.8593  127.7585   58.1476 H        34      M_A    0.0000
    245 H         101.5657  126.8372   57.3951 H        34      M_A    0.0000
    246 C         103.2093  128.8546   55.4911 C.3      35      M_A    0.0000
    247 C         102.4173  129.9894   56.1330 C.3      35      M_A    0.0000
    248 O         101.6846  130.7081   55.1417 O.3      35      M_A    0.0000
    249 H         104.2833  129.0394   55.6126 H        35      M_A    0.0000
    250 H         103.0281  128.8274   54.4106 H        35      M_A    0.0000
    251 H         101.7638  129.6305   56.9412 H        35      M_A    0.0000
    252 H         103.1044  130.7118   56.5918 H        35      M_A    0.0000
    253 C         101.1903  129.8553   54.1324 C.3      36      M_A    0.0000
    254 C         100.7995  128.4884   54.6858 C.3      36      M_A    0.0000
    255 O         100.0701  127.7461   53.7097 O.3      36      M_A    0.0000
    256 H         100.3205  130.3224   53.6550 H        36      M_A    0.0000
    257 H         101.9443  129.7458   53.3447 H        36      M_A    0.0000
    258 H         101.6710  127.9286   55.0549 H        36      M_A    0.0000
    259 H         100.1274  128.6113   55.5446 H        36      M_A    0.0000
    260 H         100.6648  127.2937   53.0757 H        36      M_A    0.0000
    261 H          42.7974  151.3697   78.4738 H         0      M_A    0.0000
@<TRIPOS>BOND
     1     1     2      1
     2     1     4      1
     3     1     5      1
     4     1   261      1
     5     2     3      1
     6     2     6      1
     7     2     7      1
     8     3     8      1
     9     8     9      1
    10     8    11      1
    11     8    12      1
    12     9    10      1
    13     9    13      1
    14     9    14      1
    15    10    15      1
    16    15    16      1
    17    15    18      1
    18    15    19      1
    19    16    17      1
    20    16    20      1
    21    16    21      1
    22    17    22      1
    23    22    23      1
    24    22    25      1
    25    22    26      1
    26    23    24      1
    27    23    27      1
    28    23    28      1
    29    24    29      1
    30    29    30      1
    31    29    32      1
    32    29    33      1
    33    30    31      1
    34    30    34      1
    35    30    35      1
    36    31    36      1
    37    36    37      1
    38    36    39      1
    39    36    40      1
    40    37    38      1
    41    37    41      1
    42    37    42      1
    43    38    43      1
    44    43    44      1
    45    43    46      1
    46    43    47      1
    47    44    45      1
    48    44    48      1
    49    44    49      1
    50    45    50      1
    51    50    51      1
    52    50    53      1
    53    50    54      1
    54    51    52      1
    55    51    55      1
    56    51    56      1
    57    52    57      1
    58    57    58      1
    59    57    60      1
    60    57    61      1
    61    58    59      1
    62    58    62      1
    63    58    63      1
    64    59    64      1
    65    64    65      1
    66    64    67      1
    67    64    68      1
    68    65    66      1
    69    65    69      1
    70    65    70      1
    71    66    71      1
    72    71    72      1
    73    71    74      1
    74    71    75      1
    75    72    73      1
    76    72    76      1
    77    72    77      1
    78    73    78      1
    79    78    79      1
    80    78    81      1
    81    78    82      1
    82    79    80      1
    83    79    83      1
    84    79    84      1
    85    80    85      1
    86    85    86      1
    87    85    88      1
    88    85    89      1
    89    86    87      1
    90    86    90      1
    91    86    91      1
    92    87    92      1
    93    92    93      1
    94    92    95      1
    95    92    96      1
    96    93    94      1
    97    93    97      1
    98    93    98      1
    99    94    99      1
   100    99   100      1
   101    99   102      1
   102    99   103      1
   103   100   101      1
   104   100   104      1
   105   100   105      1
   106   101   106      1
   107   106   107      1
   108   106   109      1
   109   106   110      1
   110   107   108      1
   111   107   111      1
   112   107   112      1
   113   108   113      1
   114   113   114      1
   115   113   116      1
   116   113   117      1
   117   114   115      1
   118   114   118      1
   119   114   119      1
   120   115   120      1
   121   120   121      1
   122   120   123      1
   123   120   124      1
   124   121   122      1
   125   121   125      1
   126   121   126      1
   127   122   127      1
   128   127   128      1
   129   127   130      1
   130   127   131      1
   131   128   129      1
   132   128   132      1
   133   128   133      1
   134   129   134      1
   135   134   135      1
   136   134   137      1
   137   134   138      1
   138   135   136      1
   139   135   139      1
   140   135   140      1
   141   136   141      1
   142   141   142      1
   143   141   144      1
   144   141   145      1
   145   142   143      1
   146   142   146      1
   147   142   147      1
   148   143   148      1
   149   148   149      1
   150   148   151      1
   151   148   152      1
   152   149   150      1
   153   149   153      1
   154   149   154      1
   155   150   155      1
   156   155   156      1
   157   155   158      1
   158   155   159      1
   159   156   157      1
   160   156   160      1
   161   156   161      1
   162   157   162      1
   163   162   163      1
   164   162   165      1
   165   162   166      1
   166   163   164      1
   167   163   167      1
   168   163   168      1
   169   164   169      1
   170   169   170      1
   171   169   172      1
   172   169   173      1
   173   170   171      1
   174   170   174      1
   175   170   175      1
   176   171   176      1
   177   176   177      1
   178   176   179      1
   179   176   180      1
   180   177   178      1
   181   177   181      1
   182   177   182      1
   183   178   183      1
   184   183   184      1
   185   183   186      1
   186   183   187      1
   187   184   185      1
   188   184   188      1
   189   184   189      1
   190   185   190      1
   191   190   191      1
   192   190   193      1
   193   190   194      1
   194   191   192      1
   195   191   195      1
   196   191   196      1
   197   192   197      1
   198   197   198      1
   199   197   200      1
   200   197   201      1
   201   198   199      1
   202   198   202      1
   203   198   203      1
   204   199   204      1
   205   204   205      1
   206   204   207      1
   207   204   208      1
   208   205   206      1
   209   205   209      1
   210   205   210      1
   211   206   211      1
   212   211   212      1
   213   211   214      1
   214   211   215      1
   215   212   213      1
   216   212   216      1
   217   212   217      1
   218   213   218      1
   219   218   219      1
   220   218   221      1
   221   218   222      1
   222   219   220      1
   223   219   223      1
   224   219   224      1
   225   220   225      1
   226   225   226      1
   227   225   228      1
   228   225   229      1
   229   226   227      1
   230   226   230      1
   231   226   231      1
   232   227   232      1
   233   232   233      1
   234   232   235      1
   235   232   236      1
   236   233   234      1
   237   233   237      1
   238   233   238      1
   239   234   239      1
   240   239   240      1
   241   239   242      1
   242   239   243      1
   243   240   241      1
   244   240   244      1
   245   240   245      1
   246   241   246      1
   247   246   247      1
   248   246   249      1
   249   246   250      1
   250   247   248      1
   251   247   251      1
   252   247   252      1
   253   248   253      1
   254   253   254      1
   255   253   256      1
   256   253   257      1
   257   254   255      1
   258   254   258      1
   259   254   259      1
   260   255   260      1
