###
### Created by PolyChef-cpp17 on Mon May 12 10:39:10 2025
###

@<TRIPOS>MOLECULE
NO_INFO
422 421 1 0 0
SMALL
USER_CHARGES


@<TRIPOS>ATOM
      1 C          21.6401  212.9935   61.5742 C.3       0      M_A    0.0000
      2 C          23.0985  213.1147   62.0060 C.3       0      M_A    0.0000
      3 O          23.6007  214.4183   61.7122 O.3       0      M_A    0.0000
      4 H          21.6053  212.7650   60.5028 H         0      M_A    0.0000
      5 H          21.1022  213.9348   61.7296 H         0      M_A    0.0000
      6 H          23.2021  212.9587   63.0871 H         0      M_A    0.0000
      7 H          23.7036  212.3346   61.5221 H         0      M_A    0.0000
      8 C          23.0488  214.9276   60.5152 C.3       1      M_A    0.0000
      9 C          23.3851  214.0537   59.3105 C.3       1      M_A    0.0000
     10 O          23.9569  214.8404   58.2655 O.3       1      M_A    0.0000
     11 H          21.9598  214.9630   60.6345 H         1      M_A    0.0000
     12 H          23.3994  215.9547   60.3686 H         1      M_A    0.0000
     13 H          24.1168  213.2811   59.5779 H         1      M_A    0.0000
     14 H          22.4870  213.5218   58.9649 H         1      M_A    0.0000
     15 C          24.4439  214.0300   57.2153 C.3       2      M_A    0.0000
     16 C          24.3827  214.7404   55.8663 C.3       2      M_A    0.0000
     17 O          23.1547  214.4457   55.2008 O.3       2      M_A    0.0000
     18 H          25.4879  213.7813   57.4380 H         2      M_A    0.0000
     19 H          23.8773  213.0930   57.1947 H         2      M_A    0.0000
     20 H          24.4347  215.8290   55.9931 H         2      M_A    0.0000
     21 H          25.2489  214.4597   55.2499 H         2      M_A    0.0000
     22 C          23.3313  214.3653   53.8010 C.3       3      M_A    0.0000
     23 C          24.1687  215.5207   53.2607 C.3       3      M_A    0.0000
     24 O          23.3282  216.6001   52.8529 O.3       3      M_A    0.0000
     25 H          23.8438  213.4221   53.5797 H         3      M_A    0.0000
     26 H          22.3488  214.3296   53.3184 H         3      M_A    0.0000
     27 H          24.8486  215.9064   54.0306 H         3      M_A    0.0000
     28 H          24.8043  215.1741   52.4331 H         3      M_A    0.0000
     29 C          23.8682  217.8489   53.2349 C.3       4      M_A    0.0000
     30 C          24.4344  218.6178   52.0447 C.3       4      M_A    0.0000
     31 O          25.7488  219.0928   52.3353 O.3       4      M_A    0.0000
     32 H          23.0638  218.4394   53.6882 H         4      M_A    0.0000
     33 H          24.6334  217.6878   54.0016 H         4      M_A    0.0000
     34 H          24.5061  217.9736   51.1594 H         4      M_A    0.0000
     35 H          23.7619  219.4437   51.7719 H         4      M_A    0.0000
     36 C          26.1501  220.0945   51.4229 C.3       5      M_A    0.0000
     37 C          27.6230  219.9697   51.0445 C.3       5      M_A    0.0000
     38 O          28.2371  221.2573   50.9921 O.3       5      M_A    0.0000
     39 H          25.5414  219.9893   50.5176 H         5      M_A    0.0000
     40 H          25.9348  221.0779   51.8544 H         5      M_A    0.0000
     41 H          28.1700  219.3749   51.7868 H         5      M_A    0.0000
     42 H          27.7252  219.4386   50.0872 H         5      M_A    0.0000
     43 C          29.6367  221.1564   50.8250 C.3       6      M_A    0.0000
     44 C          30.3091  222.5252   50.7749 C.3       6      M_A    0.0000
     45 O          31.6324  222.4138   50.2512 O.3       6      M_A    0.0000
     46 H          30.0381  220.5951   51.6765 H         6      M_A    0.0000
     47 H          29.8476  220.5789   49.9186 H         6      M_A    0.0000
     48 H          29.7544  223.2114   50.1228 H         6      M_A    0.0000
     49 H          30.3118  222.9834   51.7743 H         6      M_A    0.0000
     50 C          32.4279  221.5483   51.0355 C.3       7      M_A    0.0000
     51 C          33.5710  222.2868   51.7254 C.3       7      M_A    0.0000
     52 O          34.8266  221.8965   51.1696 O.3       7      M_A    0.0000
     53 H          31.7838  221.0987   51.7998 H         7      M_A    0.0000
     54 H          32.8056  220.7384   50.4024 H         7      M_A    0.0000
     55 H          33.4753  223.3716   51.5912 H         7      M_A    0.0000
     56 H          33.5401  222.1060   52.8095 H         7      M_A    0.0000
     57 C          35.9017  222.2719   52.0064 C.3       8      M_A    0.0000
     58 C          36.9543  223.0851   51.2588 C.3       8      M_A    0.0000
     59 O          38.2664  222.7150   51.6822 O.3       8      M_A    0.0000
     60 H          35.4967  222.8812   52.8225 H         8      M_A    0.0000
     61 H          36.3398  221.3719   52.4509 H         8      M_A    0.0000
     62 H          36.8949  222.9052   50.1781 H         8      M_A    0.0000
     63 H          36.7760  224.1605   51.4029 H         8      M_A    0.0000
     64 C          38.5415  223.1864   52.9856 C.3       9      M_A    0.0000
     65 C          38.5746  224.7105   53.0499 C.3       9      M_A    0.0000
     66 O          39.9023  225.1915   52.8410 O.3       9      M_A    0.0000
     67 H          37.7504  222.8206   53.6502 H         9      M_A    0.0000
     68 H          39.4881  222.7556   53.3290 H         9      M_A    0.0000
     69 H          37.9395  225.1502   52.2707 H         9      M_A    0.0000
     70 H          38.1698  225.0587   54.0111 H         9      M_A    0.0000
     71 C          40.8418  224.1359   52.8466 C.3      10      M_A    0.0000
     72 C          42.2215  224.5977   53.3060 C.3      10      M_A    0.0000
     73 O          43.2444  223.8569   52.6406 O.3      10      M_A    0.0000
     74 H          40.4782  223.3650   53.5357 H        10      M_A    0.0000
     75 H          40.8862  223.6918   51.8465 H        10      M_A    0.0000
     76 H          42.3787  225.6580   53.0720 H        10      M_A    0.0000
     77 H          42.3080  224.5065   54.3984 H        10      M_A    0.0000
     78 C          44.4259  224.6191   52.4988 C.3      11      M_A    0.0000
     79 C          44.2789  225.7160   51.4484 C.3      11      M_A    0.0000
     80 O          45.5067  226.4274   51.2926 O.3      11      M_A    0.0000
     81 H          44.6462  225.0827   53.4672 H        11      M_A    0.0000
     82 H          45.2570  223.9482   52.2561 H        11      M_A    0.0000
     83 H          44.0190  225.2912   50.4708 H        11      M_A    0.0000
     84 H          43.4561  226.3931   51.7195 H        11      M_A    0.0000
     85 C          45.5750  227.5383   52.1633 C.3      12      M_A    0.0000
     86 C          44.5552  228.6143   51.8023 C.3      12      M_A    0.0000
     87 O          45.1247  229.9146   51.9537 O.3      12      M_A    0.0000
     88 H          45.3705  227.1828   53.1797 H        12      M_A    0.0000
     89 H          46.5940  227.9395   52.1515 H        12      M_A    0.0000
     90 H          44.2339  228.5161   50.7578 H        12      M_A    0.0000
     91 H          43.6499  228.5004   52.4158 H        12      M_A    0.0000
     92 C          44.1269  230.9141   52.0000 C.3      13      M_A    0.0000
     93 C          44.7195  232.3194   51.9558 C.3      13      M_A    0.0000
     94 O          44.2626  233.0904   53.0670 O.3      13      M_A    0.0000
     95 H          43.4727  230.7777   51.1312 H        13      M_A    0.0000
     96 H          43.5181  230.7699   52.8989 H        13      M_A    0.0000
     97 H          45.8149  232.2854   52.0078 H        13      M_A    0.0000
     98 H          44.4707  232.8064   51.0019 H        13      M_A    0.0000
     99 C          44.7168  234.4264   52.9913 C.3      14      M_A    0.0000
    100 C          46.2388  234.5193   53.0471 C.3      14      M_A    0.0000
    101 O          46.6448  235.8044   53.5179 O.3      14      M_A    0.0000
    102 H          44.3706  234.8467   52.0401 H        14      M_A    0.0000
    103 H          44.2555  235.0069   53.7974 H        14      M_A    0.0000
    104 H          46.6528  233.7715   53.7350 H        14      M_A    0.0000
    105 H          46.6688  234.3013   52.0589 H        14      M_A    0.0000
    106 C          46.1145  236.8402   52.7162 C.3      15      M_A    0.0000
    107 C          44.8217  237.4086   53.2938 C.3      15      M_A    0.0000
    108 O          44.2903  238.4170   52.4343 O.3      15      M_A    0.0000
    109 H          46.8611  237.6408   52.6627 H        15      M_A    0.0000
    110 H          45.9607  236.4623   51.6998 H        15      M_A    0.0000
    111 H          44.0588  236.6264   53.3933 H        15      M_A    0.0000
    112 H          44.9978  237.7986   54.3067 H        15      M_A    0.0000
    113 C          43.4424  237.8626   51.4491 C.3      16      M_A    0.0000
    114 C          43.9854  238.0746   50.0390 C.3      16      M_A    0.0000
    115 O          43.6981  239.3975   49.5858 O.3      16      M_A    0.0000
    116 H          43.3625  236.7863   51.6402 H        16      M_A    0.0000
    117 H          42.4411  238.2932   51.5561 H        16      M_A    0.0000
    118 H          45.0750  237.9484   50.0148 H        16      M_A    0.0000
    119 H          43.5718  237.3191   49.3555 H        16      M_A    0.0000
    120 C          44.3472  239.6773   48.3621 C.3      17      M_A    0.0000
    121 C          45.8589  239.7998   48.5290 C.3      17      M_A    0.0000
    122 O          46.3481  240.9456   47.8320 O.3      17      M_A    0.0000
    123 H          44.1323  238.8544   47.6708 H        17      M_A    0.0000
    124 H          43.9216  240.5904   47.9325 H        17      M_A    0.0000
    125 H          46.1289  239.9181   49.5858 H        17      M_A    0.0000
    126 H          46.3544  238.8806   48.1847 H        17      M_A    0.0000
    127 C          46.2486  240.7808   46.4320 C.3      18      M_A    0.0000
    128 C          47.6159  240.7850   45.7549 C.3      18      M_A    0.0000
    129 O          47.6611  241.7719   44.7244 O.3      18      M_A    0.0000
    130 H          45.7606  239.8184   46.2398 H        18      M_A    0.0000
    131 H          45.6034  241.5665   46.0247 H        18      M_A    0.0000
    132 H          48.4094  241.0242   46.4739 H        18      M_A    0.0000
    133 H          47.8474  239.7848   45.3611 H        18      M_A    0.0000
    134 C          48.9680  241.9211   44.2082 C.3      19      M_A    0.0000
    135 C          49.0510  241.5340   42.7346 C.3      19      M_A    0.0000
    136 O          50.2772  240.8551   42.4638 O.3      19      M_A    0.0000
    137 H          49.2543  242.9737   44.3149 H        19      M_A    0.0000
    138 H          49.6611  241.3265   44.8127 H        19      M_A    0.0000
    139 H          48.2328  240.8566   42.4600 H        19      M_A    0.0000
    140 H          48.9393  242.4257   42.1011 H        19      M_A    0.0000
    141 C          50.1196  239.8899   41.4437 C.3      20      M_A    0.0000
    142 C          51.0306  240.1618   40.2503 C.3      20      M_A    0.0000
    143 O          50.3920  241.0394   39.3230 O.3      20      M_A    0.0000
    144 H          50.3707  238.9099   41.8654 H        20      M_A    0.0000
    145 H          49.0679  239.8599   41.1395 H        20      M_A    0.0000
    146 H          51.9630  240.6437   40.5700 H        20      M_A    0.0000
    147 H          51.3206  239.2158   39.7709 H        20      M_A    0.0000
    148 C          50.6511  242.3941   39.6304 C.3      21      M_A    0.0000
    149 C          50.6791  243.2709   38.3819 C.3      21      M_A    0.0000
    150 O          51.7873  244.1696   38.4264 O.3      21      M_A    0.0000
    151 H          49.8536  242.7475   40.2940 H        21      M_A    0.0000
    152 H          51.5950  242.4612   40.1818 H        21      M_A    0.0000
    153 H          50.7868  242.6611   37.4762 H        21      M_A    0.0000
    154 H          49.7284  243.8133   38.2777 H        21      M_A    0.0000
    155 C          51.5788  245.2897   37.5904 C.3      22      M_A    0.0000
    156 C          52.6262  245.3841   36.4850 C.3      22      M_A    0.0000
    157 O          53.0188  246.7415   36.2821 O.3      22      M_A    0.0000
    158 H          50.5881  245.1886   37.1325 H        22      M_A    0.0000
    159 H          51.5689  246.1968   38.2042 H        22      M_A    0.0000
    160 H          53.5278  244.8173   36.7490 H        22      M_A    0.0000
    161 H          52.2407  244.9365   35.5576 H        22      M_A    0.0000
    162 C          53.6947  246.9062   35.0521 C.3      23      M_A    0.0000
    163 C          54.5637  248.1603   35.0379 C.3      23      M_A    0.0000
    164 O          54.8065  248.5857   33.6970 O.3      23      M_A    0.0000
    165 H          54.3347  246.0296   34.8993 H        23      M_A    0.0000
    166 H          52.9598  246.9252   34.2403 H        23      M_A    0.0000
    167 H          54.0674  248.9877   35.5602 H        23      M_A    0.0000
    168 H          55.5049  247.9760   35.5756 H        23      M_A    0.0000
    169 C          55.8579  247.8512   33.1038 C.3      24      M_A    0.0000
    170 C          56.7002  248.7102   32.1653 C.3      24      M_A    0.0000
    171 O          56.7515  248.1267   30.8635 O.3      24      M_A    0.0000
    172 H          56.4988  247.4711   33.9076 H        24      M_A    0.0000
    173 H          55.4379  246.9868   32.5784 H        24      M_A    0.0000
    174 H          56.2693  249.7136   32.0588 H        24      M_A    0.0000
    175 H          57.7085  248.8497   32.5810 H        24      M_A    0.0000
    176 C          57.5261  248.9080   29.9767 C.3      25      M_A    0.0000
    177 C          57.5212  248.3427   28.5594 C.3      25      M_A    0.0000
    178 O          58.7504  248.6405   27.8976 O.3      25      M_A    0.0000
    179 H          57.1000  249.9177   29.9571 H        25      M_A    0.0000
    180 H          58.5462  248.9866   30.3674 H        25      M_A    0.0000
    181 H          57.4112  247.2511   28.5726 H        25      M_A    0.0000
    182 H          56.6600  248.7329   27.9981 H        25      M_A    0.0000
    183 C          58.7509  249.9527   27.3732 C.3      26      M_A    0.0000
    184 C          59.6812  250.0906   26.1718 C.3      26      M_A    0.0000
    185 O          60.7021  251.0526   26.4371 O.3      26      M_A    0.0000
    186 H          57.7281  250.1903   27.0588 H        26      M_A    0.0000
    187 H          59.0246  250.6549   28.1679 H        26      M_A    0.0000
    188 H          60.1776  249.1380   25.9482 H        26      M_A    0.0000
    189 H          59.1048  250.3565   25.2740 H        26      M_A    0.0000
    190 C          61.6278  250.5744   27.3917 C.3      27      M_A    0.0000
    191 C          63.0332  251.1175   27.1508 C.3      27      M_A    0.0000
    192 O          63.5814  250.5725   25.9507 O.3      27      M_A    0.0000
    193 H          61.2877  250.8978   28.3822 H        27      M_A    0.0000
    194 H          61.6198  249.4793   27.3800 H        27      M_A    0.0000
    195 H          63.0185  252.2089   27.0391 H        27      M_A    0.0000
    196 H          63.6761  250.9044   28.0169 H        27      M_A    0.0000
    197 C          64.9718  250.3510   26.0712 C.3      28      M_A    0.0000
    198 C          65.7483  251.6538   26.2387 C.3      28      M_A    0.0000
    199 O          66.9794  251.5988   25.5182 O.3      28      M_A    0.0000
    200 H          65.1378  249.7233   26.9542 H        28      M_A    0.0000
    201 H          65.3217  249.7919   25.1969 H        28      M_A    0.0000
    202 H          65.1765  252.5047   25.8477 H        28      M_A    0.0000
    203 H          65.9180  251.8599   27.3053 H        28      M_A    0.0000
    204 C          67.6612  250.3832   25.7512 C.3      29      M_A    0.0000
    205 C          69.0561  250.6085   26.3272 C.3      29      M_A    0.0000
    206 O          69.9690  250.9832   25.2957 O.3      29      M_A    0.0000
    207 H          67.0723  249.7983   26.4669 H        29      M_A    0.0000
    208 H          67.7067  249.8142   24.8165 H        29      M_A    0.0000
    209 H          69.0486  251.4169   27.0690 H        29      M_A    0.0000
    210 H          69.3983  249.7074   26.8562 H        29      M_A    0.0000
    211 C          71.3108  250.8318   25.7125 C.3      30      M_A    0.0000
    212 C          72.2553  251.7612   24.9561 C.3      30      M_A    0.0000
    213 O          72.9637  251.0416   23.9470 O.3      30      M_A    0.0000
    214 H          71.3605  251.0691   26.7814 H        30      M_A    0.0000
    215 H          71.6064  249.7841   25.5917 H        30      M_A    0.0000
    216 H          71.6993  252.5648   24.4573 H        30      M_A    0.0000
    217 H          72.9460  252.2523   25.6565 H        30      M_A    0.0000
    218 C          73.7350  251.9075   23.1393 C.3      31      M_A    0.0000
    219 C          74.9530  251.2058   22.5457 C.3      31      M_A    0.0000
    220 O          76.1124  252.0303   22.6637 O.3      31      M_A    0.0000
    221 H          73.0972  252.2630   22.3219 H        31      M_A    0.0000
    222 H          74.0310  252.7797   23.7318 H        31      M_A    0.0000
    223 H          75.1619  250.2675   23.0744 H        31      M_A    0.0000
    224 H          74.7609  250.9337   21.4978 H        31      M_A    0.0000
    225 C          77.1759  251.5437   21.8706 C.3      32      M_A    0.0000
    226 C          78.1961  250.7634   22.6943 C.3      32      M_A    0.0000
    227 O          79.3841  251.5330   22.8790 O.3      32      M_A    0.0000
    228 H          76.7518  250.8790   21.1093 H        32      M_A    0.0000
    229 H          77.6475  252.3844   21.3506 H        32      M_A    0.0000
    230 H          77.7993  250.5277   23.6897 H        32      M_A    0.0000
    231 H          78.4149  249.7994   22.2129 H        32      M_A    0.0000
    232 C          79.9557  251.3048   24.1510 C.3      33      M_A    0.0000
    233 C          81.4629  251.0812   24.0716 C.3      33      M_A    0.0000
    234 O          81.7643  249.6862   24.1037 O.3      33      M_A    0.0000
    235 H          79.7603  252.1869   24.7714 H        33      M_A    0.0000
    236 H          79.4538  250.4520   24.6205 H        33      M_A    0.0000
    237 H          81.8708  251.4839   23.1360 H        33      M_A    0.0000
    238 H          81.9698  251.6186   24.8859 H        33      M_A    0.0000
    239 C          81.3800  249.0462   22.9038 C.3      34      M_A    0.0000
    240 C          82.5632  248.3897   22.1988 C.3      34      M_A    0.0000
    241 O          82.9471  249.1493   21.0527 O.3      34      M_A    0.0000
    242 H          80.6437  248.2740   23.1546 H        34      M_A    0.0000
    243 H          80.8864  249.7752   22.2523 H        34      M_A    0.0000
    244 H          83.4346  248.3343   22.8631 H        34      M_A    0.0000
    245 H          82.3157  247.3534   21.9271 H        34      M_A    0.0000
    246 C          84.2534  248.8190   20.6271 C.3      35      M_A    0.0000
    247 C          85.3198  249.3553   21.5775 C.3      35      M_A    0.0000
    248 O          86.5991  249.3579   20.9440 O.3      35      M_A    0.0000
    249 H          84.3293  247.7262   20.5894 H        35      M_A    0.0000
    250 H          84.4042  249.1966   19.6101 H        35      M_A    0.0000
    251 H          85.0979  250.3881   21.8739 H        35      M_A    0.0000
    252 H          85.3338  248.7643   22.5045 H        35      M_A    0.0000
    253 C          87.0419  248.0448   20.6673 C.3      36      M_A    0.0000
    254 C          88.5384  247.8794   20.9148 C.3      36      M_A    0.0000
    255 O          89.0888  246.9093   20.0239 O.3      36      M_A    0.0000
    256 H          86.4958  247.3593   21.3254 H        36      M_A    0.0000
    257 H          86.7815  247.7902   19.6344 H        36      M_A    0.0000
    258 H          89.0714  248.8229   20.7431 H        36      M_A    0.0000
    259 H          88.7217  247.6079   21.9644 H        36      M_A    0.0000
    260 C          88.1414  245.9142   19.6934 C.3      37      M_A    0.0000
    261 C          88.7249  244.5083   19.7986 C.3      37      M_A    0.0000
    262 O          89.3892  244.1502   18.5869 O.3      37      M_A    0.0000
    263 H          87.3018  246.0029   20.3924 H        37      M_A    0.0000
    264 H          87.7560  246.1080   18.6867 H        37      M_A    0.0000
    265 H          89.4634  244.4493   20.6079 H        37      M_A    0.0000
    266 H          87.9339  243.7869   20.0493 H        37      M_A    0.0000
    267 C          90.7035  244.6677   18.5452 C.3      38      M_A    0.0000
    268 C          91.4629  244.2067   17.3047 C.3      38      M_A    0.0000
    269 O          92.6176  243.4538   17.6758 O.3      38      M_A    0.0000
    270 H          90.6347  245.7615   18.5327 H        38      M_A    0.0000
    271 H          91.2303  244.3794   19.4611 H        38      M_A    0.0000
    272 H          90.8361  243.5596   16.6785 H        38      M_A    0.0000
    273 H          91.7328  245.0716   16.6817 H        38      M_A    0.0000
    274 C          93.2335  242.8627   16.5498 C.3      39      M_A    0.0000
    275 C          94.3097  241.8563   16.9462 C.3      39      M_A    0.0000
    276 O          95.6048  242.3447   16.5964 O.3      39      M_A    0.0000
    277 H          92.4578  242.3441   15.9747 H        39      M_A    0.0000
    278 H          93.6460  243.6522   15.9125 H        39      M_A    0.0000
    279 H          94.3055  241.6833   18.0296 H        39      M_A    0.0000
    280 H          94.1097  240.8822   16.4772 H        39      M_A    0.0000
    281 C          96.4844  241.2887   16.2677 C.3      40      M_A    0.0000
    282 C          96.3647  240.1183   17.2394 C.3      40      M_A    0.0000
    283 O          97.6483  239.7592   17.7508 O.3      40      M_A    0.0000
    284 H          96.2308  240.9402   15.2600 H        40      M_A    0.0000
    285 H          97.5092  241.6737   16.2369 H        40      M_A    0.0000
    286 H          95.7319  240.3823   18.0959 H        40      M_A    0.0000
    287 H          95.8774  239.2646   16.7470 H        40      M_A    0.0000
    288 C          98.3535  238.9347   16.8455 C.3      41      M_A    0.0000
    289 C          98.6893  237.5744   17.4498 C.3      41      M_A    0.0000
    290 O          99.7653  236.9627   16.7385 O.3      41      M_A    0.0000
    291 H          97.7206  238.7843   15.9634 H        41      M_A    0.0000
    292 H          99.2593  239.4563   16.5182 H        41      M_A    0.0000
    293 H          99.0031  237.6764   18.4962 H        41      M_A    0.0000
    294 H          97.7974  236.9314   17.4562 H        41      M_A    0.0000
    295 C          99.7132  235.5537   16.8335 C.3      42      M_A    0.0000
    296 C         100.2981  235.0448   18.1477 C.3      42      M_A    0.0000
    297 O         101.0631  233.8596   17.9293 O.3      42      M_A    0.0000
    298 H          98.6617  235.2505   16.7725 H        42      M_A    0.0000
    299 H         100.2339  235.1181   15.9741 H        42      M_A    0.0000
    300 H         100.9678  235.7905   18.5942 H        42      M_A    0.0000
    301 H          99.4953  234.8735   18.8793 H        42      M_A    0.0000
    302 C         100.6715  232.8224   18.8055 C.3      43      M_A    0.0000
    303 C         101.7884  231.8070   19.0287 C.3      43      M_A    0.0000
    304 O         101.3025  230.4785   18.8371 O.3      43      M_A    0.0000
    305 H         100.4072  233.2760   19.7677 H        43      M_A    0.0000
    306 H          99.7720  232.3398   18.4086 H        43      M_A    0.0000
    307 H         102.6085  231.9628   18.3168 H        43      M_A    0.0000
    308 H         102.2216  231.9337   20.0313 H        43      M_A    0.0000
    309 C         100.6676  229.9872   20.0000 C.3      44      M_A    0.0000
    310 C         101.6538  229.7679   21.1435 C.3      44      M_A    0.0000
    311 O         102.4148  228.5797   20.9270 O.3      44      M_A    0.0000
    312 H          99.9201  230.7251   20.3131 H        44      M_A    0.0000
    313 H         100.1363  229.0618   19.7532 H        44      M_A    0.0000
    314 H         102.3618  230.6027   21.2168 H        44      M_A    0.0000
    315 H         101.1194  229.7311   22.1037 H        44      M_A    0.0000
    316 C         103.5882  228.8449   20.1856 C.3      45      M_A    0.0000
    317 C         103.3043  228.9877   18.6932 C.3      45      M_A    0.0000
    318 O         104.2980  228.3068   17.9273 O.3      45      M_A    0.0000
    319 H         104.0163  229.7833   20.5564 H        45      M_A    0.0000
    320 H         104.3178  228.0504   20.3749 H        45      M_A    0.0000
    321 H         102.3325  228.5490   18.4347 H        45      M_A    0.0000
    322 H         103.2461  230.0507   18.4180 H        45      M_A    0.0000
    323 C         105.3392  229.1794   17.5384 C.3      46      M_A    0.0000
    324 C         106.4885  228.4370   16.8631 C.3      46      M_A    0.0000
    325 O         107.7160  229.1427   17.0454 O.3      46      M_A    0.0000
    326 H         104.9231  229.9066   16.8317 H        46      M_A    0.0000
    327 H         105.6881  229.7332   18.4165 H        46      M_A    0.0000
    328 H         106.6174  227.4367   17.2952 H        46      M_A    0.0000
    329 H         106.2684  228.2865   15.7964 H        46      M_A    0.0000
    330 C         108.6277  228.8731   16.0000 C.3      47      M_A    0.0000
    331 C         110.0266  228.5624   16.5241 C.3      47      M_A    0.0000
    332 O         111.0108  228.8706   15.5370 O.3      47      M_A    0.0000
    333 H         108.2562  228.0044   15.4444 H        47      M_A    0.0000
    334 H         108.6437  229.7245   15.3113 H        47      M_A    0.0000
    335 H         110.2547  229.1623   17.4139 H        47      M_A    0.0000
    336 H         110.0897  227.5101   16.8367 H        47      M_A    0.0000
    337 C         111.1357  227.8304   14.5887 C.3      48      M_A    0.0000
    338 C         112.4092  227.0156   14.7948 C.3      48      M_A    0.0000
    339 O         113.3296  227.2473   13.7285 O.3      48      M_A    0.0000
    340 H         110.2694  227.1682   14.6989 H        48      M_A    0.0000
    341 H         111.0992  228.2589   13.5815 H        48      M_A    0.0000
    342 H         112.9102  227.2995   15.7287 H        48      M_A    0.0000
    343 H         112.1654  225.9474   14.8876 H        48      M_A    0.0000
    344 C         114.1743  226.1333   13.5231 C.3      49      M_A    0.0000
    345 C         115.6460  226.4845   13.7202 C.3      49      M_A    0.0000
    346 O         116.4683  225.6962   12.8598 O.3      49      M_A    0.0000
    347 H         113.8943  225.3599   14.2476 H        49      M_A    0.0000
    348 H         113.9952  225.7289   12.5211 H        49      M_A    0.0000
    349 H         115.8338  227.5383   13.4793 H        49      M_A    0.0000
    350 H         115.9295  226.3537   14.7745 H        49      M_A    0.0000
    351 C         115.8992  224.4248   12.6226 C.3      50      M_A    0.0000
    352 C         116.8099  223.2923   13.0875 C.3      50      M_A    0.0000
    353 O         117.7491  222.9544   12.0669 O.3      50      M_A    0.0000
    354 H         114.9546  224.3699   13.1759 H        50      M_A    0.0000
    355 H         115.6647  224.3314   11.5569 H        50      M_A    0.0000
    356 H         117.3822  223.5881   13.9757 H        50      M_A    0.0000
    357 H         116.2098  222.4198   13.3834 H        50      M_A    0.0000
    358 C         119.0328  222.7109   12.6054 C.3      51      M_A    0.0000
    359 C         120.1131  222.6922   11.5281 C.3      51      M_A    0.0000
    360 O         120.8305  221.4585   11.5600 O.3      51      M_A    0.0000
    361 H         119.2568  223.5127   13.3183 H        51      M_A    0.0000
    362 H         119.0137  221.7682   13.1625 H        51      M_A    0.0000
    363 H         119.6722  222.7901   10.5282 H        51      M_A    0.0000
    364 H         120.7885  223.5508   11.6530 H        51      M_A    0.0000
    365 C         121.7358  221.4145   12.6442 C.3      52      M_A    0.0000
    366 C         123.1714  221.1790   12.1843 C.3      52      M_A    0.0000
    367 O         123.2789  219.9318   11.4980 O.3      52      M_A    0.0000
    368 H         121.6840  222.3770   13.1658 H        52      M_A    0.0000
    369 H         121.4138  220.6390   13.3474 H        52      M_A    0.0000
    370 H         123.4952  221.9647   11.4903 H        52      M_A    0.0000
    371 H         123.8571  221.2234   13.0426 H        52      M_A    0.0000
    372 C         124.5781  219.3881   11.6138 C.3      53      M_A    0.0000
    373 C         125.0518  218.7504   10.3111 C.3      53      M_A    0.0000
    374 O         125.0417  217.3269   10.4181 O.3      53      M_A    0.0000
    375 H         125.2619  220.2026   11.8789 H        53      M_A    0.0000
    376 H         124.5906  218.6643   12.4356 H        53      M_A    0.0000
    377 H         124.3913  219.0219    9.4781 H        53      M_A    0.0000
    378 H         126.0514  219.1244   10.0469 H        53      M_A    0.0000
    379 C         125.8643  216.7286    9.4372 C.3      54      M_A    0.0000
    380 C         125.2759  215.4218    8.9136 C.3      54      M_A    0.0000
    381 O         126.3043  214.5889    8.3782 O.3      54      M_A    0.0000
    382 H         125.9611  217.4331    8.6032 H        54      M_A    0.0000
    383 H         126.8641  216.5722    9.8562 H        54      M_A    0.0000
    384 H         124.7856  214.8614    9.7194 H        54      M_A    0.0000
    385 H         124.4985  215.6289    8.1642 H        54      M_A    0.0000
    386 C         127.2769  215.3470    7.6880 C.3      55      M_A    0.0000
    387 C         128.1268  214.4829    6.7611 C.3      55      M_A    0.0000
    388 O         129.4895  214.9074    6.7911 O.3      55      M_A    0.0000
    389 H         126.7536  216.1010    7.0890 H        55      M_A    0.0000
    390 H         127.9001  215.8767    8.4164 H        55      M_A    0.0000
    391 H         128.1033  213.4314    7.0735 H        55      M_A    0.0000
    392 H         127.7218  214.5105    5.7393 H        55      M_A    0.0000
    393 C         130.2543  214.2618    5.7936 C.3      56      M_A    0.0000
    394 C         131.7459  214.2760    6.1147 C.3      56      M_A    0.0000
    395 O         132.5143  214.4019    4.9182 O.3      56      M_A    0.0000
    396 H         129.9154  213.2215    5.7295 H        56      M_A    0.0000
    397 H         130.0536  214.7356    4.8268 H        56      M_A    0.0000
    398 H         132.0005  215.1264    6.7596 H        56      M_A    0.0000
    399 H         132.0223  213.3707    6.6741 H        56      M_A    0.0000
    400 C         133.8841  214.6019    5.2018 C.3      57      M_A    0.0000
    401 C         134.7644  214.3643    3.9784 C.3      57      M_A    0.0000
    402 O         136.0900  214.0142    4.3760 O.3      57      M_A    0.0000
    403 H         134.0115  215.6385    5.5344 H        57      M_A    0.0000
    404 H         134.1762  213.9496    6.0317 H        57      M_A    0.0000
    405 H         134.3754  213.5389    3.3692 H        57      M_A    0.0000
    406 H         134.7627  215.2532    3.3312 H        57      M_A    0.0000
    407 C         137.0576  214.7451    3.6505 C.3      58      M_A    0.0000
    408 C         137.8194  215.7263    4.5367 C.3      58      M_A    0.0000
    409 O         138.3441  216.8011    3.7573 O.3      58      M_A    0.0000
    410 H         137.7684  214.0296    3.2213 H        58      M_A    0.0000
    411 H         136.5659  215.2624    2.8198 H        58      M_A    0.0000
    412 H         137.1592  216.1631    5.2963 H        58      M_A    0.0000
    413 H         138.6164  215.2031    5.0842 H        58      M_A    0.0000
    414 C         137.3170  217.6556    3.2969 C.3      59      M_A    0.0000
    415 C         136.2047  216.8871    2.5896 C.3      59      M_A    0.0000
    416 O         136.4005  216.9114    1.1758 O.3      59      M_A    0.0000
    417 H         136.8938  218.1723    4.1659 H        59      M_A    0.0000
    418 H         137.7524  218.4156    2.6394 H        59      M_A    0.0000
    419 H         136.1943  215.8353    2.9018 H        59      M_A    0.0000
    420 H         135.2237  217.3005    2.8646 H        59      M_A    0.0000
    421 H         135.9156  217.6542    0.7592 H        59      M_A    0.0000
    422 H          21.1204  212.1953   62.1042 H         0      M_A    0.0000
@<TRIPOS>BOND
     1     1     2      1
     2     1     4      1
     3     1     5      1
     4     1   422      1
     5     2     3      1
     6     2     6      1
     7     2     7      1
     8     3     8      1
     9     8     9      1
    10     8    11      1
    11     8    12      1
    12     9    10      1
    13     9    13      1
    14     9    14      1
    15    10    15      1
    16    15    16      1
    17    15    18      1
    18    15    19      1
    19    16    17      1
    20    16    20      1
    21    16    21      1
    22    17    22      1
    23    22    23      1
    24    22    25      1
    25    22    26      1
    26    23    24      1
    27    23    27      1
    28    23    28      1
    29    24    29      1
    30    29    30      1
    31    29    32      1
    32    29    33      1
    33    30    31      1
    34    30    34      1
    35    30    35      1
    36    31    36      1
    37    36    37      1
    38    36    39      1
    39    36    40      1
    40    37    38      1
    41    37    41      1
    42    37    42      1
    43    38    43      1
    44    43    44      1
    45    43    46      1
    46    43    47      1
    47    44    45      1
    48    44    48      1
    49    44    49      1
    50    45    50      1
    51    50    51      1
    52    50    53      1
    53    50    54      1
    54    51    52      1
    55    51    55      1
    56    51    56      1
    57    52    57      1
    58    57    58      1
    59    57    60      1
    60    57    61      1
    61    58    59      1
    62    58    62      1
    63    58    63      1
    64    59    64      1
    65    64    65      1
    66    64    67      1
    67    64    68      1
    68    65    66      1
    69    65    69      1
    70    65    70      1
    71    66    71      1
    72    71    72      1
    73    71    74      1
    74    71    75      1
    75    72    73      1
    76    72    76      1
    77    72    77      1
    78    73    78      1
    79    78    79      1
    80    78    81      1
    81    78    82      1
    82    79    80      1
    83    79    83      1
    84    79    84      1
    85    80    85      1
    86    85    86      1
    87    85    88      1
    88    85    89      1
    89    86    87      1
    90    86    90      1
    91    86    91      1
    92    87    92      1
    93    92    93      1
    94    92    95      1
    95    92    96      1
    96    93    94      1
    97    93    97      1
    98    93    98      1
    99    94    99      1
   100    99   100      1
   101    99   102      1
   102    99   103      1
   103   100   101      1
   104   100   104      1
   105   100   105      1
   106   101   106      1
   107   106   107      1
   108   106   109      1
   109   106   110      1
   110   107   108      1
   111   107   111      1
   112   107   112      1
   113   108   113      1
   114   113   114      1
   115   113   116      1
   116   113   117      1
   117   114   115      1
   118   114   118      1
   119   114   119      1
   120   115   120      1
   121   120   121      1
   122   120   123      1
   123   120   124      1
   124   121   122      1
   125   121   125      1
   126   121   126      1
   127   122   127      1
   128   127   128      1
   129   127   130      1
   130   127   131      1
   131   128   129      1
   132   128   132      1
   133   128   133      1
   134   129   134      1
   135   134   135      1
   136   134   137      1
   137   134   138      1
   138   135   136      1
   139   135   139      1
   140   135   140      1
   141   136   141      1
   142   141   142      1
   143   141   144      1
   144   141   145      1
   145   142   143      1
   146   142   146      1
   147   142   147      1
   148   143   148      1
   149   148   149      1
   150   148   151      1
   151   148   152      1
   152   149   150      1
   153   149   153      1
   154   149   154      1
   155   150   155      1
   156   155   156      1
   157   155   158      1
   158   155   159      1
   159   156   157      1
   160   156   160      1
   161   156   161      1
   162   157   162      1
   163   162   163      1
   164   162   165      1
   165   162   166      1
   166   163   164      1
   167   163   167      1
   168   163   168      1
   169   164   169      1
   170   169   170      1
   171   169   172      1
   172   169   173      1
   173   170   171      1
   174   170   174      1
   175   170   175      1
   176   171   176      1
   177   176   177      1
   178   176   179      1
   179   176   180      1
   180   177   178      1
   181   177   181      1
   182   177   182      1
   183   178   183      1
   184   183   184      1
   185   183   186      1
   186   183   187      1
   187   184   185      1
   188   184   188      1
   189   184   189      1
   190   185   190      1
   191   190   191      1
   192   190   193      1
   193   190   194      1
   194   191   192      1
   195   191   195      1
   196   191   196      1
   197   192   197      1
   198   197   198      1
   199   197   200      1
   200   197   201      1
   201   198   199      1
   202   198   202      1
   203   198   203      1
   204   199   204      1
   205   204   205      1
   206   204   207      1
   207   204   208      1
   208   205   206      1
   209   205   209      1
   210   205   210      1
   211   206   211      1
   212   211   212      1
   213   211   214      1
   214   211   215      1
   215   212   213      1
   216   212   216      1
   217   212   217      1
   218   213   218      1
   219   218   219      1
   220   218   221      1
   221   218   222      1
   222   219   220      1
   223   219   223      1
   224   219   224      1
   225   220   225      1
   226   225   226      1
   227   225   228      1
   228   225   229      1
   229   226   227      1
   230   226   230      1
   231   226   231      1
   232   227   232      1
   233   232   233      1
   234   232   235      1
   235   232   236      1
   236   233   234      1
   237   233   237      1
   238   233   238      1
   239   234   239      1
   240   239   240      1
   241   239   242      1
   242   239   243      1
   243   240   241      1
   244   240   244      1
   245   240   245      1
   246   241   246      1
   247   246   247      1
   248   246   249      1
   249   246   250      1
   250   247   248      1
   251   247   251      1
   252   247   252      1
   253   248   253      1
   254   253   254      1
   255   253   256      1
   256   253   257      1
   257   254   255      1
   258   254   258      1
   259   254   259      1
   260   255   260      1
   261   260   261      1
   262   260   263      1
   263   260   264      1
   264   261   262      1
   265   261   265      1
   266   261   266      1
   267   262   267      1
   268   267   268      1
   269   267   270      1
   270   267   271      1
   271   268   269      1
   272   268   272      1
   273   268   273      1
   274   269   274      1
   275   274   275      1
   276   274   277      1
   277   274   278      1
   278   275   276      1
   279   275   279      1
   280   275   280      1
   281   276   281      1
   282   281   282      1
   283   281   284      1
   284   281   285      1
   285   282   283      1
   286   282   286      1
   287   282   287      1
   288   283   288      1
   289   288   289      1
   290   288   291      1
   291   288   292      1
   292   289   290      1
   293   289   293      1
   294   289   294      1
   295   290   295      1
   296   295   296      1
   297   295   298      1
   298   295   299      1
   299   296   297      1
   300   296   300      1
   301   296   301      1
   302   297   302      1
   303   302   303      1
   304   302   305      1
   305   302   306      1
   306   303   304      1
   307   303   307      1
   308   303   308      1
   309   304   309      1
   310   309   310      1
   311   309   312      1
   312   309   313      1
   313   310   311      1
   314   310   314      1
   315   310   315      1
   316   311   316      1
   317   316   317      1
   318   316   319      1
   319   316   320      1
   320   317   318      1
   321   317   321      1
   322   317   322      1
   323   318   323      1
   324   323   324      1
   325   323   326      1
   326   323   327      1
   327   324   325      1
   328   324   328      1
   329   324   329      1
   330   325   330      1
   331   330   331      1
   332   330   333      1
   333   330   334      1
   334   331   332      1
   335   331   335      1
   336   331   336      1
   337   332   337      1
   338   337   338      1
   339   337   340      1
   340   337   341      1
   341   338   339      1
   342   338   342      1
   343   338   343      1
   344   339   344      1
   345   344   345      1
   346   344   347      1
   347   344   348      1
   348   345   346      1
   349   345   349      1
   350   345   350      1
   351   346   351      1
   352   351   352      1
   353   351   354      1
   354   351   355      1
   355   352   353      1
   356   352   356      1
   357   352   357      1
   358   353   358      1
   359   358   359      1
   360   358   361      1
   361   358   362      1
   362   359   360      1
   363   359   363      1
   364   359   364      1
   365   360   365      1
   366   365   366      1
   367   365   368      1
   368   365   369      1
   369   366   367      1
   370   366   370      1
   371   366   371      1
   372   367   372      1
   373   372   373      1
   374   372   375      1
   375   372   376      1
   376   373   374      1
   377   373   377      1
   378   373   378      1
   379   374   379      1
   380   379   380      1
   381   379   382      1
   382   379   383      1
   383   380   381      1
   384   380   384      1
   385   380   385      1
   386   381   386      1
   387   386   387      1
   388   386   389      1
   389   386   390      1
   390   387   388      1
   391   387   391      1
   392   387   392      1
   393   388   393      1
   394   393   394      1
   395   393   396      1
   396   393   397      1
   397   394   395      1
   398   394   398      1
   399   394   399      1
   400   395   400      1
   401   400   401      1
   402   400   403      1
   403   400   404      1
   404   401   402      1
   405   401   405      1
   406   401   406      1
   407   402   407      1
   408   407   408      1
   409   407   410      1
   410   407   411      1
   411   408   409      1
   412   408   412      1
   413   408   413      1
   414   409   414      1
   415   414   415      1
   416   414   417      1
   417   414   418      1
   418   415   416      1
   419   415   419      1
   420   415   420      1
   421   416   421      1
