###
### Created by PolyChef-cpp17 on Mon May 12 10:39:10 2025
###

@<TRIPOS>MOLECULE
NO_INFO
926 925 1 0 0
SMALL
USER_CHARGES


@<TRIPOS>ATOM
      1 C          24.9712  187.8112   68.7252 C.3       0      M_A    0.0000
      2 C          23.4708  188.0487   68.8434 C.3       0      M_A    0.0000
      3 O          23.2495  189.4159   69.1864 O.3       0      M_A    0.0000
      4 H          25.4827  188.1773   69.6227 H         0      M_A    0.0000
      5 H          25.3566  188.3760   67.8688 H         0      M_A    0.0000
      6 H          23.0203  187.3931   69.6006 H         0      M_A    0.0000
      7 H          23.0137  187.8278   67.8686 H         0      M_A    0.0000
      8 C          24.3283  190.2191   68.7579 C.3       1      M_A    0.0000
      9 C          23.9243  191.6692   68.5222 C.3       1      M_A    0.0000
     10 O          24.3001  192.4400   69.6626 O.3       1      M_A    0.0000
     11 H          25.1283  190.1672   69.5052 H         1      M_A    0.0000
     12 H          24.7183  189.7998   67.8235 H         1      M_A    0.0000
     13 H          22.8441  191.7600   68.3460 H         1      M_A    0.0000
     14 H          24.4586  192.0308   67.6324 H         1      M_A    0.0000
     15 C          24.2613  193.8199   69.3675 C.3       2      M_A    0.0000
     16 C          23.1032  194.5351   70.0520 C.3       2      M_A    0.0000
     17 O          23.4945  195.8793   70.3278 O.3       2      M_A    0.0000
     18 H          25.2136  194.2734   69.6653 H         2      M_A    0.0000
     19 H          24.1625  193.9359   68.2823 H         2      M_A    0.0000
     20 H          22.8142  194.0289   70.9827 H         2      M_A    0.0000
     21 H          22.2452  194.5276   69.3652 H         2      M_A    0.0000
     22 C          24.8843  195.9568   70.5621 C.3       3      M_A    0.0000
     23 C          25.4425  197.3554   70.3306 C.3       3      M_A    0.0000
     24 O          25.4183  198.0681   71.5664 O.3       3      M_A    0.0000
     25 H          25.0897  195.6340   71.5891 H         3      M_A    0.0000
     26 H          25.3858  195.2548   69.8862 H         3      M_A    0.0000
     27 H          24.8619  197.8975   69.5722 H         3      M_A    0.0000
     28 H          26.4779  197.2541   69.9762 H         3      M_A    0.0000
     29 C          25.2908  199.4556   71.3403 C.3       4      M_A    0.0000
     30 C          23.9111  199.8425   70.8224 C.3       4      M_A    0.0000
     31 O          23.8533  201.2621   70.6907 O.3       4      M_A    0.0000
     32 H          25.5064  199.9886   72.2733 H         4      M_A    0.0000
     33 H          26.0460  199.7541   70.6045 H         4      M_A    0.0000
     34 H          23.1181  199.4947   71.4979 H         4      M_A    0.0000
     35 H          23.7711  199.3687   69.8406 H         4      M_A    0.0000
     36 C          25.0276  201.7554   70.0823 C.3       5      M_A    0.0000
     37 C          25.0506  203.2763   69.9958 C.3       5      M_A    0.0000
     38 O          26.4022  203.7205   70.1035 O.3       5      M_A    0.0000
     39 H          25.8967  201.3966   70.6453 H         5      M_A    0.0000
     40 H          25.0911  201.3383   69.0709 H         5      M_A    0.0000
     41 H          24.4407  203.7314   70.7877 H         5      M_A    0.0000
     42 H          24.6366  203.5678   69.0202 H         5      M_A    0.0000
     43 C          26.4524  205.0926   70.4313 C.3       6      M_A    0.0000
     44 C          27.5960  205.8215   69.7369 C.3       6      M_A    0.0000
     45 O          27.0469  206.7446   68.7977 O.3       6      M_A    0.0000
     46 H          25.4947  205.5557   70.1677 H         6      M_A    0.0000
     47 H          26.5775  205.1817   71.5164 H         6      M_A    0.0000
     48 H          28.2667  205.1183   69.2253 H         6      M_A    0.0000
     49 H          28.1696  206.3622   70.5028 H         6      M_A    0.0000
     50 C          28.0728  207.4536   68.1361 C.3       7      M_A    0.0000
     51 C          27.9955  207.3215   66.6202 C.3       7      M_A    0.0000
     52 O          28.1315  208.6181   66.0404 O.3       7      M_A    0.0000
     53 H          28.0185  208.5091   68.4259 H         7      M_A    0.0000
     54 H          29.0369  207.0631   68.4808 H         7      M_A    0.0000
     55 H          27.0466  206.8665   66.3061 H         7      M_A    0.0000
     56 H          28.8221  206.6755   66.2925 H         7      M_A    0.0000
     57 C          29.4538  209.0918   66.1810 C.3       8      M_A    0.0000
     58 C          29.8722  210.0137   65.0424 C.3       8      M_A    0.0000
     59 O          30.4593  211.1895   65.5979 O.3       8      M_A    0.0000
     60 H          29.5439  209.6131   67.1408 H         8      M_A    0.0000
     61 H          30.1268  208.2273   66.2074 H         8      M_A    0.0000
     62 H          29.0155  210.2834   64.4105 H         8      M_A    0.0000
     63 H          30.6106  209.4806   64.4270 H         8      M_A    0.0000
     64 C          30.3221  212.2815   64.7140 C.3       9      M_A    0.0000
     65 C          31.0082  213.5420   65.2259 C.3       9      M_A    0.0000
     66 O          31.8295  214.0705   64.1857 O.3       9      M_A    0.0000
     67 H          30.7304  212.0004   63.7366 H         9      M_A    0.0000
     68 H          29.2532  212.4841   64.5823 H         9      M_A    0.0000
     69 H          31.6165  213.3331   66.1161 H         9      M_A    0.0000
     70 H          30.2285  214.2687   65.4940 H         9      M_A    0.0000
     71 C          32.5160  215.2220   64.6278 C.3      10      M_A    0.0000
     72 C          33.0449  216.0691   63.4772 C.3      10      M_A    0.0000
     73 O          33.1328  217.4257   63.9105 O.3      10      M_A    0.0000
     74 H          31.8433  215.8170   65.2559 H        10      M_A    0.0000
     75 H          33.3574  214.9010   65.2523 H        10      M_A    0.0000
     76 H          32.3944  215.9972   62.5953 H        10      M_A    0.0000
     77 H          34.0434  215.6951   63.2104 H        10      M_A    0.0000
     78 C          32.9112  217.5210   65.3013 C.3      11      M_A    0.0000
     79 C          33.5903  218.7350   65.9230 C.3      11      M_A    0.0000
     80 O          32.7017  219.8484   65.8409 O.3      11      M_A    0.0000
     81 H          31.8317  217.5564   65.4871 H        11      M_A    0.0000
     82 H          33.3005  216.6121   65.7738 H        11      M_A    0.0000
     83 H          34.5350  218.9693   65.4143 H        11      M_A    0.0000
     84 H          33.8045  218.5030   66.9757 H        11      M_A    0.0000
     85 C          33.1585  220.7825   64.8862 C.3      12      M_A    0.0000
     86 C          33.6393  222.0825   65.5190 C.3      12      M_A    0.0000
     87 O          34.1451  222.9323   64.4906 O.3      12      M_A    0.0000
     88 H          33.9656  220.3267   64.3015 H        12      M_A    0.0000
     89 H          32.3334  221.0025   64.1994 H        12      M_A    0.0000
     90 H          34.4179  221.8974   66.2710 H        12      M_A    0.0000
     91 H          32.7800  222.5595   66.0109 H        12      M_A    0.0000
     92 C          33.5616  222.6117   63.2458 C.3      13      M_A    0.0000
     93 C          32.6715  223.7259   62.7094 C.3      13      M_A    0.0000
     94 O          32.7129  223.6982   61.2835 O.3      13      M_A    0.0000
     95 H          34.3583  222.3868   62.5277 H        13      M_A    0.0000
     96 H          32.9614  221.7035   63.3721 H        13      M_A    0.0000
     97 H          32.9959  224.7089   63.0762 H        13      M_A    0.0000
     98 H          31.6460  223.5399   63.0585 H        13      M_A    0.0000
     99 C          32.3381  224.9496   60.7486 C.3      14      M_A    0.0000
    100 C          31.0168  224.8935   59.9918 C.3      14      M_A    0.0000
    101 O          30.6806  226.2112   59.5600 O.3      14      M_A    0.0000
    102 H          32.2751  225.6795   61.5637 H        14      M_A    0.0000
    103 H          33.1281  225.2811   60.0653 H        14      M_A    0.0000
    104 H          30.2129  224.4867   60.6199 H        14      M_A    0.0000
    105 H          31.1511  224.2363   59.1212 H        14      M_A    0.0000
    106 C          30.2110  226.9866   60.6421 C.3      15      M_A    0.0000
    107 C          30.7583  228.4085   60.6276 C.3      15      M_A    0.0000
    108 O          29.8701  229.2330   59.8746 O.3      15      M_A    0.0000
    109 H          29.1155  227.0040   60.6172 H        15      M_A    0.0000
    110 H          30.5149  226.4955   61.5734 H        15      M_A    0.0000
    111 H          31.7658  228.4450   60.1921 H        15      M_A    0.0000
    112 H          30.8099  228.7637   61.6664 H        15      M_A    0.0000
    113 C          29.4977  228.5967   58.6709 C.3      16      M_A    0.0000
    114 C          29.9904  229.3405   57.4358 C.3      16      M_A    0.0000
    115 O          30.6217  228.4069   56.5609 O.3      16      M_A    0.0000
    116 H          29.8882  227.5727   58.6751 H        16      M_A    0.0000
    117 H          28.4040  228.5355   58.6393 H        16      M_A    0.0000
    118 H          30.6941  230.1398   57.7043 H        16      M_A    0.0000
    119 H          29.1189  229.7899   56.9392 H        16      M_A    0.0000
    120 C          30.4490  228.7899   55.2132 C.3      17      M_A    0.0000
    121 C          31.7721  229.0069   54.4895 C.3      17      M_A    0.0000
    122 O          31.5091  229.1832   53.0983 O.3      17      M_A    0.0000
    123 H          29.8594  228.0224   54.6989 H        17      M_A    0.0000
    124 H          29.8726  229.7217   55.1926 H        17      M_A    0.0000
    125 H          32.4538  228.1590   54.6391 H        17      M_A    0.0000
    126 H          32.2400  229.9126   54.9005 H        17      M_A    0.0000
    127 C          32.6017  229.8075   52.4587 C.3      18      M_A    0.0000
    128 C          32.3886  229.9737   50.9593 C.3      18      M_A    0.0000
    129 O          32.7412  231.3066   50.5919 O.3      18      M_A    0.0000
    130 H          32.7756  230.7838   52.9254 H        18      M_A    0.0000
    131 H          33.4942  229.1944   52.6277 H        18      M_A    0.0000
    132 H          31.3470  229.7690   50.6780 H        18      M_A    0.0000
    133 H          33.0413  229.2568   50.4415 H        18      M_A    0.0000
    134 C          32.2407  231.6202   49.3098 C.3      19      M_A    0.0000
    135 C          33.3466  231.8739   48.2929 C.3      19      M_A    0.0000
    136 O          33.1818  230.9687   47.2023 O.3      19      M_A    0.0000
    137 H          31.5967  230.8011   48.9701 H        19      M_A    0.0000
    138 H          31.6193  232.5188   49.3945 H        19      M_A    0.0000
    139 H          34.3405  231.7450   48.7420 H        19      M_A    0.0000
    140 H          33.2514  232.9098   47.9382 H        19      M_A    0.0000
    141 C          34.1289  231.2304   46.1888 C.3      20      M_A    0.0000
    142 C          35.4352  230.4739   46.3953 C.3      20      M_A    0.0000
    143 O          36.1352  230.4219   45.1531 O.3      20      M_A    0.0000
    144 H          33.6915  230.9695   45.2184 H        20      M_A    0.0000
    145 H          34.3356  232.3065   46.1820 H        20      M_A    0.0000
    146 H          35.2541  229.4568   46.7680 H        20      M_A    0.0000
    147 H          36.0312  231.0212   47.1391 H        20      M_A    0.0000
    148 C          37.4847  230.0606   45.3551 C.3      21      M_A    0.0000
    149 C          38.4033  230.5805   44.2563 C.3      21      M_A    0.0000
    150 O          39.6517  230.9498   44.8403 O.3      21      M_A    0.0000
    151 H          37.8114  230.4393   46.3303 H        21      M_A    0.0000
    152 H          37.5462  228.9669   45.3853 H        21      M_A    0.0000
    153 H          37.9605  231.4420   43.7389 H        21      M_A    0.0000
    154 H          38.5546  229.7712   43.5282 H        21      M_A    0.0000
    155 C          40.3519  231.8417   43.9994 C.3      22      M_A    0.0000
    156 C          41.3617  232.6943   44.7576 C.3      22      M_A    0.0000
    157 O          42.6663  232.1583   44.5422 O.3      22      M_A    0.0000
    158 H          40.8572  231.2671   43.2148 H        22      M_A    0.0000
    159 H          39.6222  232.4988   43.5130 H        22      M_A    0.0000
    160 H          41.1377  232.7187   45.8325 H        22      M_A    0.0000
    161 H          41.3069  233.7184   44.3625 H        22      M_A    0.0000
    162 C          43.5131  232.4515   45.6329 C.3      23      M_A    0.0000
    163 C          44.9904  232.3607   45.2714 C.3      23      M_A    0.0000
    164 O          45.7431  233.0976   46.2338 O.3      23      M_A    0.0000
    165 H          43.2771  233.4547   46.0058 H        23      M_A    0.0000
    166 H          43.2967  231.7385   46.4365 H        23      M_A    0.0000
    167 H          45.1806  232.7537   44.2637 H        23      M_A    0.0000
    168 H          45.2825  231.3015   45.2979 H        23      M_A    0.0000
    169 C          47.0827  232.6537   46.2663 C.3      24      M_A    0.0000
    170 C          48.0817  233.8028   46.3201 C.3      24      M_A    0.0000
    171 O          48.9700  233.5860   47.4154 O.3      24      M_A    0.0000
    172 H          47.2176  231.9958   47.1325 H        24      M_A    0.0000
    173 H          47.2690  232.0592   45.3648 H        24      M_A    0.0000
    174 H          47.5736  234.7698   46.4334 H        24      M_A    0.0000
    175 H          48.6446  233.8085   45.3761 H        24      M_A    0.0000
    176 C          50.1988  234.2464   47.2001 C.3      25      M_A    0.0000
    177 C          50.2441  235.6278   47.8413 C.3      25      M_A    0.0000
    178 O          51.6082  236.0196   47.9881 O.3      25      M_A    0.0000
    179 H          51.0104  233.6223   47.5912 H        25      M_A    0.0000
    180 H          50.3487  234.3483   46.1193 H        25      M_A    0.0000
    181 H          49.7442  235.6317   48.8191 H        25      M_A    0.0000
    182 H          49.7220  236.3291   47.1753 H        25      M_A    0.0000
    183 C          52.3109  235.0922   48.7872 C.3      26      M_A    0.0000
    184 C          53.8225  235.2528   48.6829 C.3      26      M_A    0.0000
    185 O          54.2518  236.1923   49.6673 O.3      26      M_A    0.0000
    186 H          51.9905  235.2068   49.8290 H        26      M_A    0.0000
    187 H          52.0351  234.0822   48.4635 H        26      M_A    0.0000
    188 H          54.1206  235.5935   47.6824 H        26      M_A    0.0000
    189 H          54.2826  234.2731   48.8737 H        26      M_A    0.0000
    190 C          54.9231  237.2771   49.0630 C.3      27      M_A    0.0000
    191 C          56.3422  237.4562   49.5878 C.3      27      M_A    0.0000
    192 O          57.1012  238.1770   48.6182 O.3      27      M_A    0.0000
    193 H          54.9389  237.1246   47.9778 H        27      M_A    0.0000
    194 H          54.3498  238.1894   49.2625 H        27      M_A    0.0000
    195 H          56.8178  236.4880   49.7940 H        27      M_A    0.0000
    196 H          56.2888  238.0295   50.5240 H        27      M_A    0.0000
    197 C          58.4845  237.9828   48.8218 C.3      28      M_A    0.0000
    198 C          59.2186  237.5983   47.5432 C.3      28      M_A    0.0000
    199 O          60.6205  237.7592   47.7545 O.3      28      M_A    0.0000
    200 H          58.9135  238.8997   49.2417 H        28      M_A    0.0000
    201 H          58.6136  237.1854   49.5623 H        28      M_A    0.0000
    202 H          58.8930  238.2140   46.6942 H        28      M_A    0.0000
    203 H          58.9908  236.5457   47.3236 H        28      M_A    0.0000
    204 C          61.3408  237.4556   46.5791 C.3      29      M_A    0.0000
    205 C          62.8060  237.1396   46.8525 C.3      29      M_A    0.0000
    206 O          63.1849  236.0106   46.0666 O.3      29      M_A    0.0000
    207 H          60.8597  236.6086   46.0768 H        29      M_A    0.0000
    208 H          61.2801  238.3190   45.9070 H        29      M_A    0.0000
    209 H          62.9787  236.9321   47.9170 H        29      M_A    0.0000
    210 H          63.4027  238.0158   46.5625 H        29      M_A    0.0000
    211 C          64.1182  235.2101   46.7600 C.3      30      M_A    0.0000
    212 C          64.0591  233.7452   46.3452 C.3      30      M_A    0.0000
    213 O          65.3571  233.1732   46.4993 O.3      30      M_A    0.0000
    214 H          65.1244  235.6098   46.5898 H        30      M_A    0.0000
    215 H          63.9065  235.2873   47.8324 H        30      M_A    0.0000
    216 H          63.7211  233.6369   45.3059 H        30      M_A    0.0000
    217 H          63.3433  233.2338   47.0041 H        30      M_A    0.0000
    218 C          65.2932  231.7646   46.4333 C.3      31      M_A    0.0000
    219 C          64.5198  231.2675   45.2184 C.3      31      M_A    0.0000
    220 O          64.8945  229.9153   44.9594 O.3      31      M_A    0.0000
    221 H          66.3129  231.3632   46.4214 H        31      M_A    0.0000
    222 H          64.8029  231.4006   47.3433 H        31      M_A    0.0000
    223 H          64.7195  231.8889   44.3352 H        31      M_A    0.0000
    224 H          63.4473  231.3213   45.4525 H        31      M_A    0.0000
    225 C          63.9798  229.3044   44.0746 C.3      32      M_A    0.0000
    226 C          64.6667  228.6184   42.9003 C.3      32      M_A    0.0000
    227 O          64.3558  227.2264   42.9378 O.3      32      M_A    0.0000
    228 H          63.3753  228.5806   44.6330 H        32      M_A    0.0000
    229 H          63.3040  230.0776   43.6921 H        32      M_A    0.0000
    230 H          65.7550  228.7619   42.9339 H        32      M_A    0.0000
    231 H          64.2806  229.0641   41.9728 H        32      M_A    0.0000
    232 C          64.2193  226.7098   41.6313 C.3      33      M_A    0.0000
    233 C          65.5492  226.2717   41.0305 C.3      33      M_A    0.0000
    234 O          65.2913  225.3569   39.9663 O.3      33      M_A    0.0000
    235 H          63.5199  225.8664   41.6543 H        33      M_A    0.0000
    236 H          63.7800  227.4892   40.9984 H        33      M_A    0.0000
    237 H          66.1930  225.7997   41.7847 H        33      M_A    0.0000
    238 H          66.0577  227.1653   40.6419 H        33      M_A    0.0000
    239 C          66.3082  225.4274   38.9897 C.3      34      M_A    0.0000
    240 C          66.2144  224.3071   37.9614 C.3      34      M_A    0.0000
    241 O          66.1984  224.8838   36.6565 O.3      34      M_A    0.0000
    242 H          66.2547  226.4021   38.4914 H        34      M_A    0.0000
    243 H          67.2770  225.3664   39.4983 H        34      M_A    0.0000
    244 H          65.3137  223.6977   38.1145 H        34      M_A    0.0000
    245 H          67.0987  223.6646   38.0767 H        34      M_A    0.0000
    246 C          66.3516  223.8876   35.6682 C.3      35      M_A    0.0000
    247 C          66.3817  224.4596   34.2564 C.3      35      M_A    0.0000
    248 O          67.3623  223.7538   33.4975 O.3      35      M_A    0.0000
    249 H          67.2725  223.3280   35.8681 H        35      M_A    0.0000
    250 H          65.5122  223.1882   35.7532 H        35      M_A    0.0000
    251 H          66.6132  225.5332   34.2645 H        35      M_A    0.0000
    252 H          65.3875  224.3165   33.8101 H        35      M_A    0.0000
    253 C          67.2203  224.0280   32.1201 C.3      36      M_A    0.0000
    254 C          68.5123  223.8130   31.3416 C.3      36      M_A    0.0000
    255 O          68.1894  223.2839   30.0564 O.3      36      M_A    0.0000
    256 H          66.4244  223.3946   31.7123 H        36      M_A    0.0000
    257 H          66.9049  225.0716   32.0089 H        36      M_A    0.0000
    258 H          69.1893  223.1292   31.8708 H        36      M_A    0.0000
    259 H          69.0095  224.7870   31.2321 H        36      M_A    0.0000
    260 C          67.5757  224.2675   29.2512 C.3      37      M_A    0.0000
    261 C          68.5628  224.9716   28.3284 C.3      37      M_A    0.0000
    262 O          67.9806  225.0762   27.0300 O.3      37      M_A    0.0000
    263 H          66.7787  223.7983   28.6632 H        37      M_A    0.0000
    264 H          67.1104  225.0091   29.9103 H        37      M_A    0.0000
    265 H          69.5150  224.4275   28.2711 H        37      M_A    0.0000
    266 H          68.7535  225.9744   28.7359 H        37      M_A    0.0000
    267 C          68.6795  226.0175   26.2437 C.3      38      M_A    0.0000
    268 C          67.8156  226.6217   25.1437 C.3      38      M_A    0.0000
    269 O          68.2132  227.9772   24.9423 O.3      38      M_A    0.0000
    270 H          69.0661  226.8082   26.8967 H        38      M_A    0.0000
    271 H          69.5387  225.5129   25.7876 H        38      M_A    0.0000
    272 H          66.7492  226.5769   25.4023 H        38      M_A    0.0000
    273 H          67.9805  226.0420   24.2247 H        38      M_A    0.0000
    274 C          67.3354  228.6274   24.0482 C.3      39      M_A    0.0000
    275 C          68.0645  229.2886   22.8851 C.3      39      M_A    0.0000
    276 O          67.0984  229.7442   21.9391 O.3      39      M_A    0.0000
    277 H          66.6081  227.8990   23.6721 H        39      M_A    0.0000
    278 H          66.7828  229.3922   24.6054 H        39      M_A    0.0000
    279 H          68.7637  228.5921   22.4032 H        39      M_A    0.0000
    280 H          68.6331  230.1418   23.2810 H        39      M_A    0.0000
    281 C          65.7894  229.5611   22.4346 C.3      40      M_A    0.0000
    282 C          64.8253  230.6422   21.9620 C.3      40      M_A    0.0000
    283 O          64.1140  230.1557   20.8249 O.3      40      M_A    0.0000
    284 H          65.4283  228.5732   22.1269 H        40      M_A    0.0000
    285 H          65.8322  229.5735   23.5296 H        40      M_A    0.0000
    286 H          65.3572  231.5682   21.7052 H        40      M_A    0.0000
    287 H          64.1237  230.8540   22.7810 H        40      M_A    0.0000
    288 C          63.6582  231.2261   20.0255 C.3      41      M_A    0.0000
    289 C          64.7906  231.9411   19.2990 C.3      41      M_A    0.0000
    290 O          64.2583  233.0884   18.6386 O.3      41      M_A    0.0000
    291 H          62.9286  230.8437   19.3026 H        41      M_A    0.0000
    292 H          63.1404  231.9421   20.6737 H        41      M_A    0.0000
    293 H          65.2788  231.2802   18.5703 H        41      M_A    0.0000
    294 H          65.5334  232.2504   20.0478 H        41      M_A    0.0000
    295 C          63.5170  233.8837   19.5389 C.3      42      M_A    0.0000
    296 C          64.0867  235.2888   19.6885 C.3      42      M_A    0.0000
    297 O          63.1244  236.2264   19.2081 O.3      42      M_A    0.0000
    298 H          62.4772  233.9329   19.1958 H        42      M_A    0.0000
    299 H          63.5215  233.3896   20.5170 H        42      M_A    0.0000
    300 H          65.0288  235.3997   19.1351 H        42      M_A    0.0000
    301 H          64.2817  235.4650   20.7557 H        42      M_A    0.0000
    302 C          62.0249  236.3094   20.0896 C.3      43      M_A    0.0000
    303 C          62.1935  237.4017   21.1384 C.3      43      M_A    0.0000
    304 O          61.8253  238.6527   20.5594 O.3      43      M_A    0.0000
    305 H          61.1143  236.4847   19.5056 H        43      M_A    0.0000
    306 H          61.9158  235.3427   20.5939 H        43      M_A    0.0000
    307 H          63.2272  237.4471   21.5063 H        43      M_A    0.0000
    308 H          61.5286  237.1687   21.9820 H        43      M_A    0.0000
    309 C          62.9713  239.3805   20.1727 C.3      44      M_A    0.0000
    310 C          63.7454  238.7043   19.0480 C.3      44      M_A    0.0000
    311 O          64.6333  239.6576   18.4660 O.3      44      M_A    0.0000
    312 H          62.6659  240.3878   19.8676 H        44      M_A    0.0000
    313 H          63.6247  239.4814   21.0467 H        44      M_A    0.0000
    314 H          63.0690  238.3031   18.2815 H        44      M_A    0.0000
    315 H          64.3193  237.8733   19.4818 H        44      M_A    0.0000
    316 C          65.6920  239.9585   19.3499 C.3      45      M_A    0.0000
    317 C          66.7820  240.7994   18.6968 C.3      45      M_A    0.0000
    318 O          66.4461  242.1783   18.8442 O.3      45      M_A    0.0000
    319 H          65.2868  240.4798   20.2246 H        45      M_A    0.0000
    320 H          66.1277  239.0149   19.6971 H        45      M_A    0.0000
    321 H          66.8954  240.5513   17.6330 H        45      M_A    0.0000
    322 H          67.7296  240.5870   19.2115 H        45      M_A    0.0000
    323 C          66.0306  242.7255   17.6111 C.3      46      M_A    0.0000
    324 C          65.5411  244.1625   17.7408 C.3      46      M_A    0.0000
    325 O          66.1322  244.9427   16.7027 O.3      46      M_A    0.0000
    326 H          66.8638  242.6737   16.9010 H        46      M_A    0.0000
    327 H          65.2182  242.1048   17.2167 H        46      M_A    0.0000
    328 H          65.7969  244.5854   18.7215 H        46      M_A    0.0000
    329 H          64.4474  244.1604   17.6320 H        46      M_A    0.0000
    330 C          67.5173  244.6859   16.6120 C.3      47      M_A    0.0000
    331 C          68.2896  245.8407   15.9865 C.3      47      M_A    0.0000
    332 O          68.6589  246.7557   17.0172 O.3      47      M_A    0.0000
    333 H          67.9050  244.4720   17.6145 H        47      M_A    0.0000
    334 H          67.6602  243.7872   16.0013 H        47      M_A    0.0000
    335 H          67.6911  246.3555   15.2231 H        47      M_A    0.0000
    336 H          69.1904  245.4289   15.5101 H        47      M_A    0.0000
    337 C          69.0097  248.0089   16.4703 C.3      48      M_A    0.0000
    338 C          69.0985  249.1060   17.5239 C.3      48      M_A    0.0000
    339 O          69.9441  250.1448   17.0325 O.3      48      M_A    0.0000
    340 H          69.9668  247.9117   15.9455 H        48      M_A    0.0000
    341 H          68.2505  248.2845   15.7296 H        48      M_A    0.0000
    342 H          69.4916  248.7182   18.4732 H        48      M_A    0.0000
    343 H          68.0854  249.4963   17.6948 H        48      M_A    0.0000
    344 C          70.9540  249.6151   16.2005 C.3      49      M_A    0.0000
    345 C          71.8199  250.6962   15.5657 C.3      49      M_A    0.0000
    346 O          73.1086  250.1483   15.2922 O.3      49      M_A    0.0000
    347 H          71.5760  248.9310   16.7889 H        49      M_A    0.0000
    348 H          70.4737  249.0300   15.4081 H        49      M_A    0.0000
    349 H          71.9146  251.5705   16.2236 H        49      M_A    0.0000
    350 H          71.3392  251.0103   14.6286 H        49      M_A    0.0000
    351 C          74.0336  251.1722   14.9948 C.3      50      M_A    0.0000
    352 C          75.4670  250.6628   14.9086 C.3      50      M_A    0.0000
    353 O          76.2556  251.6301   14.2171 O.3      50      M_A    0.0000
    354 H          73.7451  251.6479   14.0506 H        50      M_A    0.0000
    355 H          73.9703  251.9312   15.7827 H        50      M_A    0.0000
    356 H          75.5175  249.6959   14.3901 H        50      M_A    0.0000
    357 H          75.8443  250.5340   15.9328 H        50      M_A    0.0000
    358 C          77.6305  251.4149   14.4538 C.3      51      M_A    0.0000
    359 C          78.5159  252.0326   13.3786 C.3      51      M_A    0.0000
    360 O          79.8511  252.1117   13.8752 O.3      51      M_A    0.0000
    361 H          77.8898  251.8242   15.4368 H        51      M_A    0.0000
    362 H          77.8079  250.3340   14.4862 H        51      M_A    0.0000
    363 H          78.1607  253.0319   13.0933 H        51      M_A    0.0000
    364 H          78.4825  251.3805   12.4945 H        51      M_A    0.0000
    365 C          80.4281  250.8264   13.9634 C.3      52      M_A    0.0000
    366 C          81.8752  250.7978   13.4875 C.3      52      M_A    0.0000
    367 O          82.7317  250.9603   14.6170 O.3      52      M_A    0.0000
    368 H          80.3655  250.4796   15.0011 H        52      M_A    0.0000
    369 H          79.8351  250.1412   13.3472 H        52      M_A    0.0000
    370 H          82.0700  251.5886   12.7508 H        52      M_A    0.0000
    371 H          82.0587  249.8226   13.0149 H        52      M_A    0.0000
    372 C          84.0198  250.4514   14.3444 C.3      53      M_A    0.0000
    373 C          85.0128  251.5408   13.9586 C.3      53      M_A    0.0000
    374 O          86.3021  251.1803   14.4521 O.3      53      M_A    0.0000
    375 H          84.3802  249.9073   15.2248 H        53      M_A    0.0000
    376 H          83.9378  249.7338   13.5203 H        53      M_A    0.0000
    377 H          84.7139  252.5166   14.3644 H        53      M_A    0.0000
    378 H          85.0360  251.6070   12.8618 H        53      M_A    0.0000
    379 C          87.2009  252.2628   14.3386 C.3      54      M_A    0.0000
    380 C          88.4759  252.0556   15.1466 C.3      54      M_A    0.0000
    381 O          89.5987  252.2733   14.2935 O.3      54      M_A    0.0000
    382 H          87.4449  252.4120   13.2806 H        54      M_A    0.0000
    383 H          86.6948  253.1675   14.6941 H        54      M_A    0.0000
    384 H          88.5187  251.0450   15.5743 H        54      M_A    0.0000
    385 H          88.4810  252.7866   15.9673 H        54      M_A    0.0000
    386 C          90.7499  251.6426   14.8126 C.3      55      M_A    0.0000
    387 C          90.6800  250.1234   14.7205 C.3      55      M_A    0.0000
    388 O          92.0055  249.5995   14.7867 O.3      55      M_A    0.0000
    389 H          91.6303  252.0128   14.2750 H        55      M_A    0.0000
    390 H          90.8556  251.9330   15.8640 H        55      M_A    0.0000
    391 H          90.1939  249.8008   13.7900 H        55      M_A    0.0000
    392 H          90.0892  249.7578   15.5721 H        55      M_A    0.0000
    393 C          92.8805  250.3505   13.9724 C.3      56      M_A    0.0000
    394 C          94.3330  250.2500   14.4214 C.3      56      M_A    0.0000
    395 O          95.0818  249.5876   13.4034 O.3      56      M_A    0.0000
    396 H          92.7817  250.0088   12.9358 H        56      M_A    0.0000
    397 H          92.5666  251.3998   14.0082 H        56      M_A    0.0000
    398 H          94.4218  249.7033   15.3697 H        56      M_A    0.0000
    399 H          94.7160  251.2701   14.5650 H        56      M_A    0.0000
    400 C          96.2865  249.0701   13.9263 C.3      57      M_A    0.0000
    401 C          97.5195  249.7582   13.3537 C.3      57      M_A    0.0000
    402 O          98.6545  249.3876   14.1349 O.3      57      M_A    0.0000
    403 H          96.2716  249.1700   15.0176 H        57      M_A    0.0000
    404 H          96.3315  248.0009   13.6906 H        57      M_A    0.0000
    405 H          97.4039  250.8503   13.3526 H        57      M_A    0.0000
    406 H          97.6495  249.4161   12.3174 H        57      M_A    0.0000
    407 C          98.7786  247.9829   14.2003 C.3      58      M_A    0.0000
    408 C         100.2244  247.5269   14.3519 C.3      58      M_A    0.0000
    409 O         100.3156  246.6636   15.4842 O.3      58      M_A    0.0000
    410 H          98.1764  247.6120   15.0375 H        58      M_A    0.0000
    411 H          98.3642  247.5587   13.2787 H        58      M_A    0.0000
    412 H         100.9028  248.3817   14.4749 H        58      M_A    0.0000
    413 H         100.5062  246.9811   13.4405 H        58      M_A    0.0000
    414 C         101.3141  245.6855   15.2874 C.3      59      M_A    0.0000
    415 C         102.5731  246.2521   14.6429 C.3      59      M_A    0.0000
    416 O         103.7113  245.6313   15.2389 O.3      59      M_A    0.0000
    417 H         101.5580  245.2279   16.2529 H        59      M_A    0.0000
    418 H         100.9034  244.9011   14.6417 H        59      M_A    0.0000
    419 H         102.6306  247.3417   14.7672 H        59      M_A    0.0000
    420 H         102.5391  246.0208   13.5690 H        59      M_A    0.0000
    421 C         103.4137  244.3057   15.6220 C.3      60      M_A    0.0000
    422 C         104.6163  243.3770   15.5091 C.3      60      M_A    0.0000
    423 O         105.2616  243.3076   16.7798 O.3      60      M_A    0.0000
    424 H         103.0358  244.3099   16.6507 H        60      M_A    0.0000
    425 H         102.6119  243.9333   14.9745 H        60      M_A    0.0000
    426 H         105.3238  243.7294   14.7466 H        60      M_A    0.0000
    427 H         104.2515  242.3818   15.2188 H        60      M_A    0.0000
    428 C         106.6121  242.9236   16.6337 C.3      61      M_A    0.0000
    429 C         107.5120  243.5178   17.7100 C.3      61      M_A    0.0000
    430 O         108.2931  242.4702   18.2831 O.3      61      M_A    0.0000
    431 H         106.6741  241.8295   16.6521 H        61      M_A    0.0000
    432 H         106.9600  243.2600   15.6504 H        61      M_A    0.0000
    433 H         106.9246  244.0193   18.4908 H        61      M_A    0.0000
    434 H         108.1696  244.2581   17.2331 H        61      M_A    0.0000
    435 C         109.4648  242.9881   18.8761 C.3      62      M_A    0.0000
    436 C         109.9536  242.1441   20.0467 C.3      62      M_A    0.0000
    437 O         111.1541  241.4770   19.6600 O.3      62      M_A    0.0000
    438 H         110.2468  243.0616   18.1117 H        62      M_A    0.0000
    439 H         109.2501  244.0024   19.2310 H        62      M_A    0.0000
    440 H         109.1971  241.4096   20.3538 H        62      M_A    0.0000
    441 H         110.1543  242.8181   20.8914 H        62      M_A    0.0000
    442 C         111.9586  241.2035   20.7872 C.3      63      M_A    0.0000
    443 C         112.1297  239.7106   21.0390 C.3      63      M_A    0.0000
    444 O         113.5173  239.3887   20.9567 O.3      63      M_A    0.0000
    445 H         112.9372  241.6770   20.6481 H        63      M_A    0.0000
    446 H         111.4883  241.6628   21.6639 H        63      M_A    0.0000
    447 H         111.5614  239.1145   20.3125 H        63      M_A    0.0000
    448 H         111.7528  239.4904   22.0477 H        63      M_A    0.0000
    449 C         113.7034  238.1385   20.3281 C.3      64      M_A    0.0000
    450 C         115.0968  237.5666   20.5580 C.3      64      M_A    0.0000
    451 O         115.0680  236.1669   20.2829 O.3      64      M_A    0.0000
    452 H         112.9436  237.4397   20.6959 H        64      M_A    0.0000
    453 H         113.5429  238.2684   19.2519 H        64      M_A    0.0000
    454 H         115.4359  237.7407   21.5880 H        64      M_A    0.0000
    455 H         115.7892  238.0702   19.8688 H        64      M_A    0.0000
    456 C         116.3776  235.6450   20.2112 C.3      65      M_A    0.0000
    457 C         117.2170  235.9932   21.4340 C.3      65      M_A    0.0000
    458 O         118.3698  235.1526   21.4522 O.3      65      M_A    0.0000
    459 H         116.3201  234.5572   20.0906 H        65      M_A    0.0000
    460 H         116.8612  236.0538   19.3168 H        65      M_A    0.0000
    461 H         116.6440  235.8660   22.3622 H        65      M_A    0.0000
    462 H         117.5216  237.0458   21.3490 H        65      M_A    0.0000
    463 C         118.3624  234.2711   20.3497 C.3      66      M_A    0.0000
    464 C         119.7631  233.9560   19.8395 C.3      66      M_A    0.0000
    465 O         120.1841  232.7119   20.3970 O.3      66      M_A    0.0000
    466 H         117.8493  233.3466   20.6380 H        66      M_A    0.0000
    467 H         117.7837  234.7353   19.5432 H        66      M_A    0.0000
    468 H         120.4744  234.7485   20.1079 H        66      M_A    0.0000
    469 H         119.7169  233.8797   18.7440 H        66      M_A    0.0000
    470 C         121.5581  232.4961   20.1559 C.3      67      M_A    0.0000
    471 C         122.4493  233.4568   20.9333 C.3      67      M_A    0.0000
    472 O         123.7396  232.8659   21.0810 O.3      67      M_A    0.0000
    473 H         121.8053  231.4600   20.4139 H        67      M_A    0.0000
    474 H         121.7426  232.6251   19.0834 H        67      M_A    0.0000
    475 H         122.0254  233.6863   21.9201 H        67      M_A    0.0000
    476 H         122.5276  234.3896   20.3574 H        67      M_A    0.0000
    477 C         123.7896  231.6091   20.4403 C.3      68      M_A    0.0000
    478 C         125.2066  231.0591   20.3344 C.3      68      M_A    0.0000
    479 O         125.2660  229.8116   21.0242 O.3      68      M_A    0.0000
    480 H         123.1522  230.9058   20.9882 H        68      M_A    0.0000
    481 H         123.3727  231.7207   19.4330 H        68      M_A    0.0000
    482 H         125.9399  231.7585   20.7577 H        68      M_A    0.0000
    483 H         125.4349  230.9102   19.2696 H        68      M_A    0.0000
    484 C         126.4952  229.6754   21.7048 C.3      69      M_A    0.0000
    485 C         126.6581  228.3077   22.3562 C.3      69      M_A    0.0000
    486 O         128.0345  227.9356   22.3009 O.3      69      M_A    0.0000
    487 H         127.3137  229.8567   20.9989 H        69      M_A    0.0000
    488 H         126.5462  230.4491   22.4792 H        69      M_A    0.0000
    489 H         126.0428  227.5493   21.8538 H        69      M_A    0.0000
    490 H         126.3332  228.3887   23.4030 H        69      M_A    0.0000
    491 C         128.2007  226.5818   22.6646 C.3      70      M_A    0.0000
    492 C         129.6619  226.2044   22.8737 C.3      70      M_A    0.0000
    493 O         129.7186  224.9942   23.6274 O.3      70      M_A    0.0000
    494 H         127.6264  226.3864   23.5774 H        70      M_A    0.0000
    495 H         127.7805  225.9584   21.8673 H        70      M_A    0.0000
    496 H         130.2097  226.9995   23.3970 H        70      M_A    0.0000
    497 H         130.1188  226.0526   21.8857 H        70      M_A    0.0000
    498 C         130.7775  224.1756   23.1787 C.3      71      M_A    0.0000
    499 C         131.3749  223.3242   24.2921 C.3      71      M_A    0.0000
    500 O         131.6707  222.0298   23.7697 O.3      71      M_A    0.0000
    501 H         130.4117  223.5344   22.3686 H        71      M_A    0.0000
    502 H         131.5590  224.8223   22.7640 H        71      M_A    0.0000
    503 H         130.6862  223.2381   25.1433 H        71      M_A    0.0000
    504 H         132.2991  223.8109   24.6339 H        71      M_A    0.0000
    505 C         132.5434  221.3310   24.6315 C.3      72      M_A    0.0000
    506 C         132.0236  219.9465   24.9982 C.3      72      M_A    0.0000
    507 O         133.0721  218.9982   24.8051 O.3      72      M_A    0.0000
    508 H         133.5258  221.2503   24.1526 H        72      M_A    0.0000
    509 H         132.6668  221.9210   25.5467 H        72      M_A    0.0000
    510 H         131.1515  219.6723   24.3896 H        72      M_A    0.0000
    511 H         131.7243  219.9646   26.0556 H        72      M_A    0.0000
    512 C         132.5455  217.7001   24.6310 C.3      73      M_A    0.0000
    513 C         133.6273  216.6537   24.3946 C.3      73      M_A    0.0000
    514 O         133.7665  215.8647   25.5752 O.3      73      M_A    0.0000
    515 H         131.9522  217.4364   25.5139 H        73      M_A    0.0000
    516 H         131.8693  217.7170   23.7687 H        73      M_A    0.0000
    517 H         134.5876  217.1214   24.1393 H        73      M_A    0.0000
    518 H         133.3096  216.0196   23.5550 H        73      M_A    0.0000
    519 C         134.8305  214.9468   25.4399 C.3      74      M_A    0.0000
    520 C         136.1553  215.5038   25.9459 C.3      74      M_A    0.0000
    521 O         136.9305  214.4298   26.4763 O.3      74      M_A    0.0000
    522 H         134.5770  214.0275   25.9801 H        74      M_A    0.0000
    523 H         134.9311  214.6923   24.3788 H        74      M_A    0.0000
    524 H         135.9989  216.2711   26.7159 H        74      M_A    0.0000
    525 H         136.6798  215.9601   25.0946 H        74      M_A    0.0000
    526 C         138.2131  214.8800   26.8569 C.3      75      M_A    0.0000
    527 C         139.0002  213.8285   27.6290 C.3      75      M_A    0.0000
    528 O         140.2781  213.6706   27.0143 O.3      75      M_A    0.0000
    529 H         138.7649  215.1799   25.9587 H        75      M_A    0.0000
    530 H         138.0919  215.7695   27.4854 H        75      M_A    0.0000
    531 H         138.4705  212.8666   27.6485 H        75      M_A    0.0000
    532 H         139.1220  214.1850   28.6615 H        75      M_A    0.0000
    533 C         140.6857  212.3196   27.0498 C.3      76      M_A    0.0000
    534 C         142.1947  212.1644   27.1923 C.3      76      M_A    0.0000
    535 O         142.4803  210.8290   27.6060 O.3      76      M_A    0.0000
    536 H         140.1749  211.8163   27.8785 H        76      M_A    0.0000
    537 H         140.3628  211.8393   26.1191 H        76      M_A    0.0000
    538 H         142.6036  212.8790   27.9192 H        76      M_A    0.0000
    539 H         142.6508  212.3589   26.2115 H        76      M_A    0.0000
    540 C         143.7791  210.4488   27.2044 C.3      77      M_A    0.0000
    541 C         144.5053  209.6285   28.2633 C.3      77      M_A    0.0000
    542 O         145.0397  208.4574   27.6479 O.3      77      M_A    0.0000
    543 H         143.7097  209.8811   26.2696 H        77      M_A    0.0000
    544 H         144.3547  211.3585   26.9993 H        77      M_A    0.0000
    545 H         143.8315  209.3482   29.0840 H        77      M_A    0.0000
    546 H         145.3202  210.2435   28.6703 H        77      M_A    0.0000
    547 C         146.2812  208.1125   28.2244 C.3      78      M_A    0.0000
    548 C         146.1842  206.9080   29.1522 C.3      78      M_A    0.0000
    549 O         146.8168  205.7941   28.5237 O.3      78      M_A    0.0000
    550 H         147.0018  207.9141   27.4229 H        78      M_A    0.0000
    551 H         146.6462  208.9747   28.7940 H        78      M_A    0.0000
    552 H         145.1387  206.6650   29.3846 H        78      M_A    0.0000
    553 H         146.7049  207.1564   30.0877 H        78      M_A    0.0000
    554 C         146.2841  204.5794   29.0066 C.3      79      M_A    0.0000
    555 C         147.2784  203.7978   29.8563 C.3      79      M_A    0.0000
    556 O         146.5610  202.8466   30.6413 O.3      79      M_A    0.0000
    557 H         145.3794  204.7942   29.5867 H        79      M_A    0.0000
    558 H         145.9901  203.9677   28.1461 H        79      M_A    0.0000
    559 H         147.8574  204.4644   30.5093 H        79      M_A    0.0000
    560 H         147.9708  203.2790   29.1786 H        79      M_A    0.0000
    561 C         145.3398  202.5061   30.0204 C.3      80      M_A    0.0000
    562 C         145.1303  201.0001   29.9218 C.3      80      M_A    0.0000
    563 O         144.1467  200.6114   30.8795 O.3      80      M_A    0.0000
    564 H         144.5170  202.9655   30.5798 H        80      M_A    0.0000
    565 H         145.3367  202.9347   29.0118 H        80      M_A    0.0000
    566 H         146.0659  200.4534   30.1002 H        80      M_A    0.0000
    567 H         144.7763  200.7717   28.9067 H        80      M_A    0.0000
    568 C         143.3487  199.5608   30.3774 C.3      81      M_A    0.0000
    569 C         144.1690  198.4765   29.6898 C.3      81      M_A    0.0000
    570 O         144.3443  197.3901   30.5980 O.3      81      M_A    0.0000
    571 H         142.7697  199.1296   31.2020 H        81      M_A    0.0000
    572 H         142.6386  199.9832   29.6575 H        81      M_A    0.0000
    573 H         145.1467  198.8586   29.3669 H        81      M_A    0.0000
    574 H         143.6122  198.1389   28.8043 H        81      M_A    0.0000
    575 C         144.3253  196.1570   29.9112 C.3      82      M_A    0.0000
    576 C         145.6667  195.4362   29.9600 C.3      82      M_A    0.0000
    577 O         145.6419  194.4954   31.0324 O.3      82      M_A    0.0000
    578 H         143.5410  195.5235   30.3409 H        82      M_A    0.0000
    579 H         144.0609  196.3508   28.8655 H        82      M_A    0.0000
    580 H         146.4959  196.1429   30.0985 H        82      M_A    0.0000
    581 H         145.8060  194.9118   29.0042 H        82      M_A    0.0000
    582 C         146.4329  193.3672   30.7254 C.3      83      M_A    0.0000
    583 C         147.8262  193.4420   31.3373 C.3      83      M_A    0.0000
    584 O         148.1996  192.1398   31.7854 O.3      83      M_A    0.0000
    585 H         145.9159  192.4659   31.0738 H        83      M_A    0.0000
    586 H         146.5238  193.2983   29.6355 H        83      M_A    0.0000
    587 H         147.8579  194.1515   32.1749 H        83      M_A    0.0000
    588 H         148.5219  193.7844   30.5584 H        83      M_A    0.0000
    589 C         147.5203  191.8080   32.9775 C.3      84      M_A    0.0000
    590 C         146.8051  190.4654   32.8925 C.3      84      M_A    0.0000
    591 O         147.1344  189.6975   34.0490 O.3      84      M_A    0.0000
    592 H         148.2387  191.8009   33.8051 H        84      M_A    0.0000
    593 H         146.7841  192.5934   33.1827 H        84      M_A    0.0000
    594 H         147.0889  189.9177   31.9838 H        84      M_A    0.0000
    595 H         145.7233  190.6574   32.8653 H        84      M_A    0.0000
    596 C         146.6158  188.3888   33.9438 C.3      85      M_A    0.0000
    597 C         145.9903  187.8981   35.2436 C.3      85      M_A    0.0000
    598 O         144.5891  187.7225   35.0393 O.3      85      M_A    0.0000
    599 H         145.8755  188.3643   33.1362 H        85      M_A    0.0000
    600 H         147.4351  187.7166   33.6648 H        85      M_A    0.0000
    601 H         146.1649  188.6067   36.0643 H        85      M_A    0.0000
    602 H         146.4550  186.9364   35.5029 H        85      M_A    0.0000
    603 C         144.0819  186.7192   35.8929 C.3      86      M_A    0.0000
    604 C         144.7078  186.7571   37.2815 C.3      86      M_A    0.0000
    605 O         143.7500  187.2795   38.2010 O.3      86      M_A    0.0000
    606 H         142.9943  186.8321   35.9663 H        86      M_A    0.0000
    607 H         144.2850  185.7444   35.4352 H        86      M_A    0.0000
    608 H         145.6166  187.3736   37.2941 H        86      M_A    0.0000
    609 H         144.9752  185.7286   37.5623 H        86      M_A    0.0000
    610 C         143.9185  186.7035   39.4787 C.3      87      M_A    0.0000
    611 C         145.1679  187.2073   40.1905 C.3      87      M_A    0.0000
    612 O         144.8017  187.6581   41.4937 O.3      87      M_A    0.0000
    613 H         143.0291  186.9145   40.0833 H        87      M_A    0.0000
    614 H         143.9889  185.6165   39.3584 H        87      M_A    0.0000
    615 H         145.6460  188.0224   39.6309 H        87      M_A    0.0000
    616 H         145.8759  186.3702   40.2684 H        87      M_A    0.0000
    617 C         145.8846  187.5280   42.3898 C.3      88      M_A    0.0000
    618 C         146.3182  188.8615   42.9856 C.3      88      M_A    0.0000
    619 O         146.8282  188.6321   44.2982 O.3      88      M_A    0.0000
    620 H         145.6029  186.8321   43.1883 H        88      M_A    0.0000
    621 H         146.7282  187.0873   41.8467 H        88      M_A    0.0000
    622 H         145.4823  189.5726   43.0257 H        88      M_A    0.0000
    623 H         147.1069  189.2800   42.3446 H        88      M_A    0.0000
    624 C         147.9002  189.5070   44.5775 C.3      89      M_A    0.0000
    625 C         147.7841  190.1599   45.9492 C.3      89      M_A    0.0000
    626 O         148.9400  189.8237   46.7152 O.3      89      M_A    0.0000
    627 H         148.8413  188.9503   44.5033 H        89      M_A    0.0000
    628 H         147.9144  190.2883   43.8092 H        89      M_A    0.0000
    629 H         146.8767  189.8313   46.4733 H        89      M_A    0.0000
    630 H         147.7335  191.2483   45.8046 H        89      M_A    0.0000
    631 C         149.3044  190.8912   47.5640 C.3      90      M_A    0.0000
    632 C         150.3224  190.4809   48.6207 C.3      90      M_A    0.0000
    633 O         151.5993  190.9999   48.2517 O.3      90      M_A    0.0000
    634 H         149.7031  191.7096   46.9539 H        90      M_A    0.0000
    635 H         148.3995  191.2577   48.0620 H        90      M_A    0.0000
    636 H         150.3754  189.3887   48.7226 H        90      M_A    0.0000
    637 H         150.0067  190.9101   49.5820 H        90      M_A    0.0000
    638 C         152.5807  189.9860   48.2909 C.3      91      M_A    0.0000
    639 C         153.9366  190.4603   47.7828 C.3      91      M_A    0.0000
    640 O         154.8124  190.6206   48.8977 O.3      91      M_A    0.0000
    641 H         152.6709  189.6188   49.3195 H        91      M_A    0.0000
    642 H         152.2372  189.1518   47.6687 H        91      M_A    0.0000
    643 H         153.8492  191.4074   47.2338 H        91      M_A    0.0000
    644 H         154.3321  189.6933   47.1023 H        91      M_A    0.0000
    645 C         156.1589  190.4743   48.4999 C.3      92      M_A    0.0000
    646 C         156.9143  191.7975   48.4840 C.3      92      M_A    0.0000
    647 O         157.5813  191.9586   49.7350 O.3      92      M_A    0.0000
    648 H         156.6533  189.7660   49.1744 H        92      M_A    0.0000
    649 H         156.1742  190.0413   47.4934 H        92      M_A    0.0000
    650 H         156.2363  192.6432   48.3074 H        92      M_A    0.0000
    651 H         157.6503  191.7592   47.6687 H        92      M_A    0.0000
    652 C         156.6646  192.3157   50.7473 C.3      93      M_A    0.0000
    653 C         157.0977  193.5536   51.5227 C.3      93      M_A    0.0000
    654 O         155.9683  194.4103   51.6849 O.3      93      M_A    0.0000
    655 H         155.6807  192.4801   50.2933 H        93      M_A    0.0000
    656 H         156.5740  191.4722   51.4411 H        93      M_A    0.0000
    657 H         157.9044  194.0887   51.0040 H        93      M_A    0.0000
    658 H         157.4656  193.2278   52.5058 H        93      M_A    0.0000
    659 C         156.2222  195.3906   52.6684 C.3      94      M_A    0.0000
    660 C         157.5677  196.0797   52.4780 C.3      94      M_A    0.0000
    661 O         157.8132  196.9227   53.6027 O.3      94      M_A    0.0000
    662 H         155.4137  196.1302   52.6494 H        94      M_A    0.0000
    663 H         156.2050  194.9039   53.6502 H        94      M_A    0.0000
    664 H         157.5869  196.6713   51.5530 H        94      M_A    0.0000
    665 H         158.3421  195.3023   52.4158 H        94      M_A    0.0000
    666 C         158.7961  197.8888   53.2974 C.3      95      M_A    0.0000
    667 C         158.9641  198.9256   54.4012 C.3      95      M_A    0.0000
    668 O         160.3234  198.9162   54.8347 O.3      95      M_A    0.0000
    669 H         159.7483  197.3795   53.1104 H        95      M_A    0.0000
    670 H         158.5026  198.3961   52.3715 H        95      M_A    0.0000
    671 H         158.2973  198.7191   55.2490 H        95      M_A    0.0000
    672 H         158.7102  199.9103   53.9843 H        95      M_A    0.0000
    673 C         160.4306  199.4098   56.1529 C.3      96      M_A    0.0000
    674 C         161.1467  200.7529   56.2213 C.3      96      M_A    0.0000
    675 O         160.6457  201.4820   57.3408 O.3      96      M_A    0.0000
    676 H         159.4260  199.4957   56.5825 H        96      M_A    0.0000
    677 H         160.9860  198.6772   56.7494 H        96      M_A    0.0000
    678 H         161.0006  201.3317   55.2995 H        96      M_A    0.0000
    679 H         162.2209  200.5595   56.3499 H        96      M_A    0.0000
    680 C         159.5507  200.8097   57.9252 C.3      97      M_A    0.0000
    681 C         159.6131  200.7967   59.4474 C.3      97      M_A    0.0000
    682 O         158.7177  201.7871   59.9506 O.3      97      M_A    0.0000
    683 H         158.6221  201.2856   57.5899 H        97      M_A    0.0000
    684 H         159.5466  199.7771   57.5582 H        97      M_A    0.0000
    685 H         160.6319  200.9926   59.8078 H        97      M_A    0.0000
    686 H         159.3025  199.8004   59.7921 H        97      M_A    0.0000
    687 C         159.1586  202.2693   61.2020 C.3      98      M_A    0.0000
    688 C         160.4139  203.1258   61.0929 C.3      98      M_A    0.0000
    689 O         160.8593  203.4543   62.4080 O.3      98      M_A    0.0000
    690 H         158.3490  202.8440   61.6661 H        98      M_A    0.0000
    691 H         159.3676  201.4083   61.8470 H        98      M_A    0.0000
    692 H         160.2238  204.0432   60.5199 H        98      M_A    0.0000
    693 H         161.1828  202.5377   60.5724 H        98      M_A    0.0000
    694 C         161.8663  204.4425   62.3619 C.3      99      M_A    0.0000
    695 C         162.4885  204.7120   63.7263 C.3      99      M_A    0.0000
    696 O         163.6245  203.8637   63.8867 O.3      99      M_A    0.0000
    697 H         162.6388  204.1292   61.6504 H        99      M_A    0.0000
    698 H         161.4205  205.3690   61.9825 H        99      M_A    0.0000
    699 H         161.7687  204.5342   64.5365 H        99      M_A    0.0000
    700 H         162.8000  205.7655   63.7560 H        99      M_A    0.0000
    701 C         163.9574  203.7277   65.2518 C.3     100      M_A    0.0000
    702 C         162.7925  203.2215   66.0934 C.3     100      M_A    0.0000
    703 O         163.2934  202.7989   67.3608 O.3     100      M_A    0.0000
    704 H         164.8119  203.0475   65.3427 H       100      M_A    0.0000
    705 H         164.2711  204.7081   65.6276 H       100      M_A    0.0000
    706 H         162.2725  202.3905   65.5982 H       100      M_A    0.0000
    707 H         162.0841  204.0510   66.2276 H       100      M_A    0.0000
    708 C         164.6847  203.0213   67.4473 C.3     101      M_A    0.0000
    709 C         165.0694  203.8794   68.6461 C.3     101      M_A    0.0000
    710 O         166.2766  203.3662   69.2075 O.3     101      M_A    0.0000
    711 H         165.1964  202.0534   67.4966 H       101      M_A    0.0000
    712 H         165.0096  203.5231   66.5289 H       101      M_A    0.0000
    713 H         164.2751  203.8867   69.4044 H       101      M_A    0.0000
    714 H         165.2281  204.9075   68.2915 H       101      M_A    0.0000
    715 C         166.8537  204.3028   70.0920 C.3     102      M_A    0.0000
    716 C         165.8450  204.8795   71.0776 C.3     102      M_A    0.0000
    717 O         166.5450  205.3361   72.2341 O.3     102      M_A    0.0000
    718 H         167.6759  203.8206   70.6327 H       102      M_A    0.0000
    719 H         167.2798  205.1188   69.4974 H       102      M_A    0.0000
    720 H         165.0928  204.1322   71.3637 H       102      M_A    0.0000
    721 H         165.3365  205.7229   70.5896 H       102      M_A    0.0000
    722 C         165.7101  205.2952   73.3717 C.3     103      M_A    0.0000
    723 C         166.4099  205.7874   74.6324 C.3     103      M_A    0.0000
    724 O         165.4603  206.4785   75.4426 O.3     103      M_A    0.0000
    725 H         164.8155  205.8977   73.1773 H       103      M_A    0.0000
    726 H         165.3871  204.2590   73.5229 H       103      M_A    0.0000
    727 H         167.2512  206.4505   74.3902 H       103      M_A    0.0000
    728 H         166.7955  204.9108   75.1717 H       103      M_A    0.0000
    729 C         165.5706  206.0791   76.7921 C.3     104      M_A    0.0000
    730 C         164.6953  206.9079   77.7239 C.3     104      M_A    0.0000
    731 O         164.1602  206.0510   78.7315 O.3     104      M_A    0.0000
    732 H         165.3068  205.0184   76.8710 H       104      M_A    0.0000
    733 H         166.6180  206.1850   77.0966 H       104      M_A    0.0000
    734 H         163.8801  207.3988   77.1757 H       104      M_A    0.0000
    735 H         165.3260  207.6809   78.1850 H       104      M_A    0.0000
    736 C         163.1543  206.7134   79.4678 C.3     105      M_A    0.0000
    737 C         162.1076  205.7569   80.0253 C.3     105      M_A    0.0000
    738 O         162.2901  205.6508   81.4364 O.3     105      M_A    0.0000
    739 H         163.6234  207.2760   80.2830 H       105      M_A    0.0000
    740 H         162.6632  207.4350   78.8052 H       105      M_A    0.0000
    741 H         162.1841  204.7649   79.5604 H       105      M_A    0.0000
    742 H         161.1147  206.1738   79.8058 H       105      M_A    0.0000
    743 C         161.3331  204.7793   81.9996 C.3     106      M_A    0.0000
    744 C         161.7768  203.3220   81.9720 C.3     106      M_A    0.0000
    745 O         160.9732  202.5815   82.8894 O.3     106      M_A    0.0000
    746 H         161.1310  205.0924   83.0302 H       106      M_A    0.0000
    747 H         160.4011  204.8805   81.4322 H       106      M_A    0.0000
    748 H         162.8382  203.2218   82.2357 H       106      M_A    0.0000
    749 H         161.6293  202.9408   80.9517 H       106      M_A    0.0000
    750 C         160.8163  201.2483   82.4526 C.3     107      M_A    0.0000
    751 C         160.9574  200.2383   83.5845 C.3     107      M_A    0.0000
    752 O         159.8997  199.2861   83.4826 O.3     107      M_A    0.0000
    753 H         159.8356  201.1445   81.9746 H       107      M_A    0.0000
    754 H         161.5797  201.0441   81.6934 H       107      M_A    0.0000
    755 H         160.9273  200.7304   84.5659 H       107      M_A    0.0000
    756 H         161.9277  199.7346   83.4720 H       107      M_A    0.0000
    757 C         160.2974  198.0394   84.0120 C.3     108      M_A    0.0000
    758 C         160.5258  198.0861   85.5177 C.3     108      M_A    0.0000
    759 O         160.7454  196.7572   85.9886 O.3     108      M_A    0.0000
    760 H         159.5344  197.2911   83.7694 H       108      M_A    0.0000
    761 H         161.2280  197.7380   83.5180 H       108      M_A    0.0000
    762 H         159.6686  198.5331   86.0388 H       108      M_A    0.0000
    763 H         161.4152  198.7032   85.7079 H       108      M_A    0.0000
    764 C         159.5324  196.0368   86.0343 C.3     109      M_A    0.0000
    765 C         159.7453  194.5364   86.1920 C.3     109      M_A    0.0000
    766 O         159.7532  194.2191   87.5831 O.3     109      M_A    0.0000
    767 H         158.9228  196.4201   86.8605 H       109      M_A    0.0000
    768 H         158.9864  196.2249   85.1029 H       109      M_A    0.0000
    769 H         160.6870  194.2148   85.7274 H       109      M_A    0.0000
    770 H         158.9121  194.0204   85.6944 H       109      M_A    0.0000
    771 C         160.9701  194.6155   88.1787 C.3     110      M_A    0.0000
    772 C         161.7402  193.4452   88.7775 C.3     110      M_A    0.0000
    773 O         163.1279  193.6175   88.4939 O.3     110      M_A    0.0000
    774 H         161.5835  195.1256   87.4273 H       110      M_A    0.0000
    775 H         160.7448  195.3385   88.9708 H       110      M_A    0.0000
    776 H         161.3896  192.4864   88.3726 H       110      M_A    0.0000
    777 H         161.5761  193.4503   89.8643 H       110      M_A    0.0000
    778 C         163.3966  194.9476   88.1045 C.3     111      M_A    0.0000
    779 C         164.8732  195.3060   88.2163 C.3     111      M_A    0.0000
    780 O         165.5229  194.9552   86.9954 O.3     111      M_A    0.0000
    781 H         163.0502  195.0928   87.0749 H       111      M_A    0.0000
    782 H         162.8158  195.6175   88.7485 H       111      M_A    0.0000
    783 H         165.3486  194.7856   89.0585 H       111      M_A    0.0000
    784 H         164.9485  196.3897   88.3834 H       111      M_A    0.0000
    785 C         166.9023  194.7425   87.2070 C.3     112      M_A    0.0000
    786 C         167.1865  193.4730   88.0000 C.3     112      M_A    0.0000
    787 O         168.5975  193.3451   88.1687 O.3     112      M_A    0.0000
    788 H         167.4082  194.7016   86.2356 H       112      M_A    0.0000
    789 H         167.3022  195.6036   87.7544 H       112      M_A    0.0000
    790 H         166.7864  192.5856   87.4915 H       112      M_A    0.0000
    791 H         166.6986  193.5679   88.9803 H       112      M_A    0.0000
    792 C         169.2077  192.9222   86.9681 C.3     113      M_A    0.0000
    793 C         170.6933  192.6282   87.1354 C.3     113      M_A    0.0000
    794 O         170.8463  191.2790   87.5738 O.3     113      M_A    0.0000
    795 H         168.6862  192.0315   86.5995 H       113      M_A    0.0000
    796 H         169.0814  193.7144   86.2215 H       113      M_A    0.0000
    797 H         171.1580  193.3133   87.8572 H       113      M_A    0.0000
    798 H         171.1788  192.7626   86.1586 H       113      M_A    0.0000
    799 C         171.7968  191.1967   88.6141 C.3     114      M_A    0.0000
    800 C         171.3929  191.9996   89.8444 C.3     114      M_A    0.0000
    801 O         172.2412  191.6303   90.9306 O.3     114      M_A    0.0000
    802 H         171.9400  190.1436   88.8815 H       114      M_A    0.0000
    803 H         172.7526  191.5770   88.2363 H       114      M_A    0.0000
    804 H         170.3422  191.8226   90.1105 H       114      M_A    0.0000
    805 H         171.5232  193.0660   89.6124 H       114      M_A    0.0000
    806 C         173.5494  192.1221   90.7321 C.3     115      M_A    0.0000
    807 C         174.5712  191.4619   91.6494 C.3     115      M_A    0.0000
    808 O         175.1243  190.3304   90.9789 O.3     115      M_A    0.0000
    809 H         173.8303  191.9704   89.6837 H       115      M_A    0.0000
    810 H         173.5426  193.2014   90.9219 H       115      M_A    0.0000
    811 H         174.1147  191.1507   92.5985 H       115      M_A    0.0000
    812 H         175.3616  192.1954   91.8618 H       115      M_A    0.0000
    813 C         175.4264  189.3033   91.8988 C.3     116      M_A    0.0000
    814 C         175.2728  187.9117   91.2977 C.3     116      M_A    0.0000
    815 O         175.8997  186.9672   92.1641 O.3     116      M_A    0.0000
    816 H         176.4495  189.4448   92.2654 H       116      M_A    0.0000
    817 H         174.7497  189.3999   92.7554 H       116      M_A    0.0000
    818 H         175.7189  187.8572   90.2957 H       116      M_A    0.0000
    819 H         174.1988  187.6923   91.2181 H       116      M_A    0.0000
    820 C         177.2878  187.2103   92.2469 C.3     117      M_A    0.0000
    821 C         177.8596  186.8901   93.6224 C.3     117      M_A    0.0000
    822 O         179.1926  186.4069   93.4625 O.3     117      M_A    0.0000
    823 H         177.7983  186.6180   91.4790 H       117      M_A    0.0000
    824 H         177.4646  188.2684   92.0232 H       117      M_A    0.0000
    825 H         177.2487  186.1424   94.1456 H       117      M_A    0.0000
    826 H         177.8650  187.8171   94.2127 H       117      M_A    0.0000
    827 C         179.7881  186.1597   94.7183 C.3     118      M_A    0.0000
    828 C         181.1354  185.4578   94.6021 C.3     118      M_A    0.0000
    829 O         182.1387  186.2958   95.1739 O.3     118      M_A    0.0000
    830 H         179.9032  187.1111   95.2500 H       118      M_A    0.0000
    831 H         179.1067  185.5319   95.3034 H       118      M_A    0.0000
    832 H         181.3822  185.2362   93.5551 H       118      M_A    0.0000
    833 H         181.0752  184.5117   95.1582 H       118      M_A    0.0000
    834 C         183.4235  185.9043   94.7394 C.3     119      M_A    0.0000
    835 C         184.2909  185.3725   95.8735 C.3     119      M_A    0.0000
    836 O         185.2375  184.4520   95.3327 O.3     119      M_A    0.0000
    837 H         183.3173  185.1438   93.9575 H       119      M_A    0.0000
    838 H         183.9145  186.7757   94.2916 H       119      M_A    0.0000
    839 H         183.6837  184.8786   96.6440 H       119      M_A    0.0000
    840 H         184.8145  186.2244   96.3295 H       119      M_A    0.0000
    841 C         185.3668  184.6303   93.9383 C.3     120      M_A    0.0000
    842 C         186.7461  184.2408   93.4213 C.3     120      M_A    0.0000
    843 O         187.5185  185.4267   93.2401 O.3     120      M_A    0.0000
    844 H         184.5940  184.0409   93.4319 H       120      M_A    0.0000
    845 H         185.1837  185.6862   93.7091 H       120      M_A    0.0000
    846 H         186.6773  183.6882   92.4747 H       120      M_A    0.0000
    847 H         187.2212  183.5949   94.1730 H       120      M_A    0.0000
    848 C         188.5281  185.2224   92.2748 C.3     121      M_A    0.0000
    849 C         189.9273  185.2254   92.8778 C.3     121      M_A    0.0000
    850 O         190.7924  184.4709   92.0303 O.3     121      M_A    0.0000
    851 H         188.3409  184.2726   91.7610 H       121      M_A    0.0000
    852 H         188.4576  186.0231   91.5300 H       121      M_A    0.0000
    853 H         189.9276  184.7999   93.8903 H       121      M_A    0.0000
    854 H         190.2717  186.2676   92.9330 H       121      M_A    0.0000
    855 C         192.0553  184.2944   92.6358 C.3     122      M_A    0.0000
    856 C         193.1984  184.8162   91.7742 C.3     122      M_A    0.0000
    857 O         194.4001  184.1478   92.1547 O.3     122      M_A    0.0000
    858 H         192.0559  184.7986   93.6089 H       122      M_A    0.0000
    859 H         192.2027  183.2235   92.8159 H       122      M_A    0.0000
    860 H         193.3202  185.9020   91.8858 H       122      M_A    0.0000
    861 H         192.9618  184.5939   90.7242 H       122      M_A    0.0000
    862 C         195.3204  184.1272   91.0844 C.3     123      M_A    0.0000
    863 C         196.7612  183.9610   91.5512 C.3     123      M_A    0.0000
    864 O         197.5200  183.3758   90.4941 O.3     123      M_A    0.0000
    865 H         195.0500  183.3156   90.3994 H       123      M_A    0.0000
    866 H         195.2287  185.0709   90.5350 H       123      M_A    0.0000
    867 H         196.8208  183.3325   92.4498 H       123      M_A    0.0000
    868 H         197.1582  184.9575   91.7907 H       123      M_A    0.0000
    869 C         197.7051  184.2986   89.4420 C.3     124      M_A    0.0000
    870 C         198.6234  185.4520   89.8264 C.3     124      M_A    0.0000
    871 O         199.9748  185.0585   89.5924 O.3     124      M_A    0.0000
    872 H         198.1093  183.7686   88.5720 H       124      M_A    0.0000
    873 H         196.7247  184.6998   89.1612 H       124      M_A    0.0000
    874 H         198.4909  185.7352   90.8792 H       124      M_A    0.0000
    875 H         198.3690  186.3144   89.1944 H       124      M_A    0.0000
    876 C         200.4832  184.3383   90.6948 C.3     125      M_A    0.0000
    877 C         201.6704  185.0309   91.3525 C.3     125      M_A    0.0000
    878 O         201.4528  185.0721   92.7620 O.3     125      M_A    0.0000
    879 H         199.6793  184.1933   91.4253 H       125      M_A    0.0000
    880 H         200.7960  183.3486   90.3433 H       125      M_A    0.0000
    881 H         201.8061  186.0487   90.9628 H       125      M_A    0.0000
    882 H         202.5727  184.4445   91.1292 H       125      M_A    0.0000
    883 C         202.2291  186.0896   93.3575 C.3     126      M_A    0.0000
    884 C         202.2393  186.0070   94.8789 C.3     126      M_A    0.0000
    885 O         203.4746  185.4283   95.2973 O.3     126      M_A    0.0000
    886 H         203.2522  186.0285   92.9697 H       126      M_A    0.0000
    887 H         201.8157  187.0583   93.0545 H       126      M_A    0.0000
    888 H         201.3978  185.4086   95.2528 H       126      M_A    0.0000
    889 H         202.1500  187.0280   95.2756 H       126      M_A    0.0000
    890 C         203.2534  184.4245   96.2649 C.3     127      M_A    0.0000
    891 C         204.5443  183.7639   96.7324 C.3     127      M_A    0.0000
    892 O         204.8893  184.2894   98.0133 O.3     127      M_A    0.0000
    893 H         202.7244  184.8643   97.1181 H       127      M_A    0.0000
    894 H         202.6001  183.6624   95.8253 H       127      M_A    0.0000
    895 H         205.3630  183.9378   96.0214 H       127      M_A    0.0000
    896 H         204.3652  182.6821   96.8066 H       127      M_A    0.0000
    897 C         205.8950  185.2729   97.8951 C.3     128      M_A    0.0000
    898 C         207.2092  184.8503   98.5398 C.3     128      M_A    0.0000
    899 O         208.2590  185.6596   98.0117 O.3     128      M_A    0.0000
    900 H         206.0504  185.4959   96.8334 H       128      M_A    0.0000
    901 H         205.5374  186.1890   98.3787 H       128      M_A    0.0000
    902 H         207.4228  183.7891   98.3546 H       128      M_A    0.0000
    903 H         207.1227  185.0087   99.6240 H       128      M_A    0.0000
    904 C         209.3521  185.7043   98.9039 C.3     129      M_A    0.0000
    905 C         210.6593  186.0735   98.2139 C.3     129      M_A    0.0000
    906 O         211.3512  187.0237   99.0227 O.3     129      M_A    0.0000
    907 H         209.1304  186.4230   99.7011 H       129      M_A    0.0000
    908 H         209.4579  184.7165   99.3665 H       129      M_A    0.0000
    909 H         210.4801  186.4903   97.2138 H       129      M_A    0.0000
    910 H         211.2605  185.1589   98.1124 H       129      M_A    0.0000
    911 C         212.3358  187.6983   98.2689 C.3     130      M_A    0.0000
    912 C         212.8650  188.9420   98.9721 C.3     130      M_A    0.0000
    913 O         214.0417  189.3837   98.2969 O.3     130      M_A    0.0000
    914 H         213.1584  187.0053   98.0585 H       130      M_A    0.0000
    915 H         211.8933  187.9902   97.3098 H       130      M_A    0.0000
    916 H         213.0905  188.7394  100.0277 H       130      M_A    0.0000
    917 H         212.0888  189.7184   98.9199 H       130      M_A    0.0000
    918 C         214.8927  188.2941   98.0120 C.3     131      M_A    0.0000
    919 C         214.1485  186.9658   97.9561 C.3     131      M_A    0.0000
    920 O         214.8615  186.0085   98.7377 O.3     131      M_A    0.0000
    921 H         215.4024  188.4812   97.0600 H       131      M_A    0.0000
    922 H         215.6581  188.2428   98.7947 H       131      M_A    0.0000
    923 H         214.0467  186.6073   96.9230 H       131      M_A    0.0000
    924 H         213.1447  187.1203   98.3763 H       131      M_A    0.0000
    925 H         214.3143  185.2103   98.8922 H       131      M_A    0.0000
    926 H          25.2205  186.7600   68.5808 H         0      M_A    0.0000
@<TRIPOS>BOND
     1     1     2      1
     2     1     4      1
     3     1     5      1
     4     1   926      1
     5     2     3      1
     6     2     6      1
     7     2     7      1
     8     3     8      1
     9     8     9      1
    10     8    11      1
    11     8    12      1
    12     9    10      1
    13     9    13      1
    14     9    14      1
    15    10    15      1
    16    15    16      1
    17    15    18      1
    18    15    19      1
    19    16    17      1
    20    16    20      1
    21    16    21      1
    22    17    22      1
    23    22    23      1
    24    22    25      1
    25    22    26      1
    26    23    24      1
    27    23    27      1
    28    23    28      1
    29    24    29      1
    30    29    30      1
    31    29    32      1
    32    29    33      1
    33    30    31      1
    34    30    34      1
    35    30    35      1
    36    31    36      1
    37    36    37      1
    38    36    39      1
    39    36    40      1
    40    37    38      1
    41    37    41      1
    42    37    42      1
    43    38    43      1
    44    43    44      1
    45    43    46      1
    46    43    47      1
    47    44    45      1
    48    44    48      1
    49    44    49      1
    50    45    50      1
    51    50    51      1
    52    50    53      1
    53    50    54      1
    54    51    52      1
    55    51    55      1
    56    51    56      1
    57    52    57      1
    58    57    58      1
    59    57    60      1
    60    57    61      1
    61    58    59      1
    62    58    62      1
    63    58    63      1
    64    59    64      1
    65    64    65      1
    66    64    67      1
    67    64    68      1
    68    65    66      1
    69    65    69      1
    70    65    70      1
    71    66    71      1
    72    71    72      1
    73    71    74      1
    74    71    75      1
    75    72    73      1
    76    72    76      1
    77    72    77      1
    78    73    78      1
    79    78    79      1
    80    78    81      1
    81    78    82      1
    82    79    80      1
    83    79    83      1
    84    79    84      1
    85    80    85      1
    86    85    86      1
    87    85    88      1
    88    85    89      1
    89    86    87      1
    90    86    90      1
    91    86    91      1
    92    87    92      1
    93    92    93      1
    94    92    95      1
    95    92    96      1
    96    93    94      1
    97    93    97      1
    98    93    98      1
    99    94    99      1
   100    99   100      1
   101    99   102      1
   102    99   103      1
   103   100   101      1
   104   100   104      1
   105   100   105      1
   106   101   106      1
   107   106   107      1
   108   106   109      1
   109   106   110      1
   110   107   108      1
   111   107   111      1
   112   107   112      1
   113   108   113      1
   114   113   114      1
   115   113   116      1
   116   113   117      1
   117   114   115      1
   118   114   118      1
   119   114   119      1
   120   115   120      1
   121   120   121      1
   122   120   123      1
   123   120   124      1
   124   121   122      1
   125   121   125      1
   126   121   126      1
   127   122   127      1
   128   127   128      1
   129   127   130      1
   130   127   131      1
   131   128   129      1
   132   128   132      1
   133   128   133      1
   134   129   134      1
   135   134   135      1
   136   134   137      1
   137   134   138      1
   138   135   136      1
   139   135   139      1
   140   135   140      1
   141   136   141      1
   142   141   142      1
   143   141   144      1
   144   141   145      1
   145   142   143      1
   146   142   146      1
   147   142   147      1
   148   143   148      1
   149   148   149      1
   150   148   151      1
   151   148   152      1
   152   149   150      1
   153   149   153      1
   154   149   154      1
   155   150   155      1
   156   155   156      1
   157   155   158      1
   158   155   159      1
   159   156   157      1
   160   156   160      1
   161   156   161      1
   162   157   162      1
   163   162   163      1
   164   162   165      1
   165   162   166      1
   166   163   164      1
   167   163   167      1
   168   163   168      1
   169   164   169      1
   170   169   170      1
   171   169   172      1
   172   169   173      1
   173   170   171      1
   174   170   174      1
   175   170   175      1
   176   171   176      1
   177   176   177      1
   178   176   179      1
   179   176   180      1
   180   177   178      1
   181   177   181      1
   182   177   182      1
   183   178   183      1
   184   183   184      1
   185   183   186      1
   186   183   187      1
   187   184   185      1
   188   184   188      1
   189   184   189      1
   190   185   190      1
   191   190   191      1
   192   190   193      1
   193   190   194      1
   194   191   192      1
   195   191   195      1
   196   191   196      1
   197   192   197      1
   198   197   198      1
   199   197   200      1
   200   197   201      1
   201   198   199      1
   202   198   202      1
   203   198   203      1
   204   199   204      1
   205   204   205      1
   206   204   207      1
   207   204   208      1
   208   205   206      1
   209   205   209      1
   210   205   210      1
   211   206   211      1
   212   211   212      1
   213   211   214      1
   214   211   215      1
   215   212   213      1
   216   212   216      1
   217   212   217      1
   218   213   218      1
   219   218   219      1
   220   218   221      1
   221   218   222      1
   222   219   220      1
   223   219   223      1
   224   219   224      1
   225   220   225      1
   226   225   226      1
   227   225   228      1
   228   225   229      1
   229   226   227      1
   230   226   230      1
   231   226   231      1
   232   227   232      1
   233   232   233      1
   234   232   235      1
   235   232   236      1
   236   233   234      1
   237   233   237      1
   238   233   238      1
   239   234   239      1
   240   239   240      1
   241   239   242      1
   242   239   243      1
   243   240   241      1
   244   240   244      1
   245   240   245      1
   246   241   246      1
   247   246   247      1
   248   246   249      1
   249   246   250      1
   250   247   248      1
   251   247   251      1
   252   247   252      1
   253   248   253      1
   254   253   254      1
   255   253   256      1
   256   253   257      1
   257   254   255      1
   258   254   258      1
   259   254   259      1
   260   255   260      1
   261   260   261      1
   262   260   263      1
   263   260   264      1
   264   261   262      1
   265   261   265      1
   266   261   266      1
   267   262   267      1
   268   267   268      1
   269   267   270      1
   270   267   271      1
   271   268   269      1
   272   268   272      1
   273   268   273      1
   274   269   274      1
   275   274   275      1
   276   274   277      1
   277   274   278      1
   278   275   276      1
   279   275   279      1
   280   275   280      1
   281   276   281      1
   282   281   282      1
   283   281   284      1
   284   281   285      1
   285   282   283      1
   286   282   286      1
   287   282   287      1
   288   283   288      1
   289   288   289      1
   290   288   291      1
   291   288   292      1
   292   289   290      1
   293   289   293      1
   294   289   294      1
   295   290   295      1
   296   295   296      1
   297   295   298      1
   298   295   299      1
   299   296   297      1
   300   296   300      1
   301   296   301      1
   302   297   302      1
   303   302   303      1
   304   302   305      1
   305   302   306      1
   306   303   304      1
   307   303   307      1
   308   303   308      1
   309   304   309      1
   310   309   310      1
   311   309   312      1
   312   309   313      1
   313   310   311      1
   314   310   314      1
   315   310   315      1
   316   311   316      1
   317   316   317      1
   318   316   319      1
   319   316   320      1
   320   317   318      1
   321   317   321      1
   322   317   322      1
   323   318   323      1
   324   323   324      1
   325   323   326      1
   326   323   327      1
   327   324   325      1
   328   324   328      1
   329   324   329      1
   330   325   330      1
   331   330   331      1
   332   330   333      1
   333   330   334      1
   334   331   332      1
   335   331   335      1
   336   331   336      1
   337   332   337      1
   338   337   338      1
   339   337   340      1
   340   337   341      1
   341   338   339      1
   342   338   342      1
   343   338   343      1
   344   339   344      1
   345   344   345      1
   346   344   347      1
   347   344   348      1
   348   345   346      1
   349   345   349      1
   350   345   350      1
   351   346   351      1
   352   351   352      1
   353   351   354      1
   354   351   355      1
   355   352   353      1
   356   352   356      1
   357   352   357      1
   358   353   358      1
   359   358   359      1
   360   358   361      1
   361   358   362      1
   362   359   360      1
   363   359   363      1
   364   359   364      1
   365   360   365      1
   366   365   366      1
   367   365   368      1
   368   365   369      1
   369   366   367      1
   370   366   370      1
   371   366   371      1
   372   367   372      1
   373   372   373      1
   374   372   375      1
   375   372   376      1
   376   373   374      1
   377   373   377      1
   378   373   378      1
   379   374   379      1
   380   379   380      1
   381   379   382      1
   382   379   383      1
   383   380   381      1
   384   380   384      1
   385   380   385      1
   386   381   386      1
   387   386   387      1
   388   386   389      1
   389   386   390      1
   390   387   388      1
   391   387   391      1
   392   387   392      1
   393   388   393      1
   394   393   394      1
   395   393   396      1
   396   393   397      1
   397   394   395      1
   398   394   398      1
   399   394   399      1
   400   395   400      1
   401   400   401      1
   402   400   403      1
   403   400   404      1
   404   401   402      1
   405   401   405      1
   406   401   406      1
   407   402   407      1
   408   407   408      1
   409   407   410      1
   410   407   411      1
   411   408   409      1
   412   408   412      1
   413   408   413      1
   414   409   414      1
   415   414   415      1
   416   414   417      1
   417   414   418      1
   418   415   416      1
   419   415   419      1
   420   415   420      1
   421   416   421      1
   422   421   422      1
   423   421   424      1
   424   421   425      1
   425   422   423      1
   426   422   426      1
   427   422   427      1
   428   423   428      1
   429   428   429      1
   430   428   431      1
   431   428   432      1
   432   429   430      1
   433   429   433      1
   434   429   434      1
   435   430   435      1
   436   435   436      1
   437   435   438      1
   438   435   439      1
   439   436   437      1
   440   436   440      1
   441   436   441      1
   442   437   442      1
   443   442   443      1
   444   442   445      1
   445   442   446      1
   446   443   444      1
   447   443   447      1
   448   443   448      1
   449   444   449      1
   450   449   450      1
   451   449   452      1
   452   449   453      1
   453   450   451      1
   454   450   454      1
   455   450   455      1
   456   451   456      1
   457   456   457      1
   458   456   459      1
   459   456   460      1
   460   457   458      1
   461   457   461      1
   462   457   462      1
   463   458   463      1
   464   463   464      1
   465   463   466      1
   466   463   467      1
   467   464   465      1
   468   464   468      1
   469   464   469      1
   470   465   470      1
   471   470   471      1
   472   470   473      1
   473   470   474      1
   474   471   472      1
   475   471   475      1
   476   471   476      1
   477   472   477      1
   478   477   478      1
   479   477   480      1
   480   477   481      1
   481   478   479      1
   482   478   482      1
   483   478   483      1
   484   479   484      1
   485   484   485      1
   486   484   487      1
   487   484   488      1
   488   485   486      1
   489   485   489      1
   490   485   490      1
   491   486   491      1
   492   491   492      1
   493   491   494      1
   494   491   495      1
   495   492   493      1
   496   492   496      1
   497   492   497      1
   498   493   498      1
   499   498   499      1
   500   498   501      1
   501   498   502      1
   502   499   500      1
   503   499   503      1
   504   499   504      1
   505   500   505      1
   506   505   506      1
   507   505   508      1
   508   505   509      1
   509   506   507      1
   510   506   510      1
   511   506   511      1
   512   507   512      1
   513   512   513      1
   514   512   515      1
   515   512   516      1
   516   513   514      1
   517   513   517      1
   518   513   518      1
   519   514   519      1
   520   519   520      1
   521   519   522      1
   522   519   523      1
   523   520   521      1
   524   520   524      1
   525   520   525      1
   526   521   526      1
   527   526   527      1
   528   526   529      1
   529   526   530      1
   530   527   528      1
   531   527   531      1
   532   527   532      1
   533   528   533      1
   534   533   534      1
   535   533   536      1
   536   533   537      1
   537   534   535      1
   538   534   538      1
   539   534   539      1
   540   535   540      1
   541   540   541      1
   542   540   543      1
   543   540   544      1
   544   541   542      1
   545   541   545      1
   546   541   546      1
   547   542   547      1
   548   547   548      1
   549   547   550      1
   550   547   551      1
   551   548   549      1
   552   548   552      1
   553   548   553      1
   554   549   554      1
   555   554   555      1
   556   554   557      1
   557   554   558      1
   558   555   556      1
   559   555   559      1
   560   555   560      1
   561   556   561      1
   562   561   562      1
   563   561   564      1
   564   561   565      1
   565   562   563      1
   566   562   566      1
   567   562   567      1
   568   563   568      1
   569   568   569      1
   570   568   571      1
   571   568   572      1
   572   569   570      1
   573   569   573      1
   574   569   574      1
   575   570   575      1
   576   575   576      1
   577   575   578      1
   578   575   579      1
   579   576   577      1
   580   576   580      1
   581   576   581      1
   582   577   582      1
   583   582   583      1
   584   582   585      1
   585   582   586      1
   586   583   584      1
   587   583   587      1
   588   583   588      1
   589   584   589      1
   590   589   590      1
   591   589   592      1
   592   589   593      1
   593   590   591      1
   594   590   594      1
   595   590   595      1
   596   591   596      1
   597   596   597      1
   598   596   599      1
   599   596   600      1
   600   597   598      1
   601   597   601      1
   602   597   602      1
   603   598   603      1
   604   603   604      1
   605   603   606      1
   606   603   607      1
   607   604   605      1
   608   604   608      1
   609   604   609      1
   610   605   610      1
   611   610   611      1
   612   610   613      1
   613   610   614      1
   614   611   612      1
   615   611   615      1
   616   611   616      1
   617   612   617      1
   618   617   618      1
   619   617   620      1
   620   617   621      1
   621   618   619      1
   622   618   622      1
   623   618   623      1
   624   619   624      1
   625   624   625      1
   626   624   627      1
   627   624   628      1
   628   625   626      1
   629   625   629      1
   630   625   630      1
   631   626   631      1
   632   631   632      1
   633   631   634      1
   634   631   635      1
   635   632   633      1
   636   632   636      1
   637   632   637      1
   638   633   638      1
   639   638   639      1
   640   638   641      1
   641   638   642      1
   642   639   640      1
   643   639   643      1
   644   639   644      1
   645   640   645      1
   646   645   646      1
   647   645   648      1
   648   645   649      1
   649   646   647      1
   650   646   650      1
   651   646   651      1
   652   647   652      1
   653   652   653      1
   654   652   655      1
   655   652   656      1
   656   653   654      1
   657   653   657      1
   658   653   658      1
   659   654   659      1
   660   659   660      1
   661   659   662      1
   662   659   663      1
   663   660   661      1
   664   660   664      1
   665   660   665      1
   666   661   666      1
   667   666   667      1
   668   666   669      1
   669   666   670      1
   670   667   668      1
   671   667   671      1
   672   667   672      1
   673   668   673      1
   674   673   674      1
   675   673   676      1
   676   673   677      1
   677   674   675      1
   678   674   678      1
   679   674   679      1
   680   675   680      1
   681   680   681      1
   682   680   683      1
   683   680   684      1
   684   681   682      1
   685   681   685      1
   686   681   686      1
   687   682   687      1
   688   687   688      1
   689   687   690      1
   690   687   691      1
   691   688   689      1
   692   688   692      1
   693   688   693      1
   694   689   694      1
   695   694   695      1
   696   694   697      1
   697   694   698      1
   698   695   696      1
   699   695   699      1
   700   695   700      1
   701   696   701      1
   702   701   702      1
   703   701   704      1
   704   701   705      1
   705   702   703      1
   706   702   706      1
   707   702   707      1
   708   703   708      1
   709   708   709      1
   710   708   711      1
   711   708   712      1
   712   709   710      1
   713   709   713      1
   714   709   714      1
   715   710   715      1
   716   715   716      1
   717   715   718      1
   718   715   719      1
   719   716   717      1
   720   716   720      1
   721   716   721      1
   722   717   722      1
   723   722   723      1
   724   722   725      1
   725   722   726      1
   726   723   724      1
   727   723   727      1
   728   723   728      1
   729   724   729      1
   730   729   730      1
   731   729   732      1
   732   729   733      1
   733   730   731      1
   734   730   734      1
   735   730   735      1
   736   731   736      1
   737   736   737      1
   738   736   739      1
   739   736   740      1
   740   737   738      1
   741   737   741      1
   742   737   742      1
   743   738   743      1
   744   743   744      1
   745   743   746      1
   746   743   747      1
   747   744   745      1
   748   744   748      1
   749   744   749      1
   750   745   750      1
   751   750   751      1
   752   750   753      1
   753   750   754      1
   754   751   752      1
   755   751   755      1
   756   751   756      1
   757   752   757      1
   758   757   758      1
   759   757   760      1
   760   757   761      1
   761   758   759      1
   762   758   762      1
   763   758   763      1
   764   759   764      1
   765   764   765      1
   766   764   767      1
   767   764   768      1
   768   765   766      1
   769   765   769      1
   770   765   770      1
   771   766   771      1
   772   771   772      1
   773   771   774      1
   774   771   775      1
   775   772   773      1
   776   772   776      1
   777   772   777      1
   778   773   778      1
   779   778   779      1
   780   778   781      1
   781   778   782      1
   782   779   780      1
   783   779   783      1
   784   779   784      1
   785   780   785      1
   786   785   786      1
   787   785   788      1
   788   785   789      1
   789   786   787      1
   790   786   790      1
   791   786   791      1
   792   787   792      1
   793   792   793      1
   794   792   795      1
   795   792   796      1
   796   793   794      1
   797   793   797      1
   798   793   798      1
   799   794   799      1
   800   799   800      1
   801   799   802      1
   802   799   803      1
   803   800   801      1
   804   800   804      1
   805   800   805      1
   806   801   806      1
   807   806   807      1
   808   806   809      1
   809   806   810      1
   810   807   808      1
   811   807   811      1
   812   807   812      1
   813   808   813      1
   814   813   814      1
   815   813   816      1
   816   813   817      1
   817   814   815      1
   818   814   818      1
   819   814   819      1
   820   815   820      1
   821   820   821      1
   822   820   823      1
   823   820   824      1
   824   821   822      1
   825   821   825      1
   826   821   826      1
   827   822   827      1
   828   827   828      1
   829   827   830      1
   830   827   831      1
   831   828   829      1
   832   828   832      1
   833   828   833      1
   834   829   834      1
   835   834   835      1
   836   834   837      1
   837   834   838      1
   838   835   836      1
   839   835   839      1
   840   835   840      1
   841   836   841      1
   842   841   842      1
   843   841   844      1
   844   841   845      1
   845   842   843      1
   846   842   846      1
   847   842   847      1
   848   843   848      1
   849   848   849      1
   850   848   851      1
   851   848   852      1
   852   849   850      1
   853   849   853      1
   854   849   854      1
   855   850   855      1
   856   855   856      1
   857   855   858      1
   858   855   859      1
   859   856   857      1
   860   856   860      1
   861   856   861      1
   862   857   862      1
   863   862   863      1
   864   862   865      1
   865   862   866      1
   866   863   864      1
   867   863   867      1
   868   863   868      1
   869   864   869      1
   870   869   870      1
   871   869   872      1
   872   869   873      1
   873   870   871      1
   874   870   874      1
   875   870   875      1
   876   871   876      1
   877   876   877      1
   878   876   879      1
   879   876   880      1
   880   877   878      1
   881   877   881      1
   882   877   882      1
   883   878   883      1
   884   883   884      1
   885   883   886      1
   886   883   887      1
   887   884   885      1
   888   884   888      1
   889   884   889      1
   890   885   890      1
   891   890   891      1
   892   890   893      1
   893   890   894      1
   894   891   892      1
   895   891   895      1
   896   891   896      1
   897   892   897      1
   898   897   898      1
   899   897   900      1
   900   897   901      1
   901   898   899      1
   902   898   902      1
   903   898   903      1
   904   899   904      1
   905   904   905      1
   906   904   907      1
   907   904   908      1
   908   905   906      1
   909   905   909      1
   910   905   910      1
   911   906   911      1
   912   911   912      1
   913   911   914      1
   914   911   915      1
   915   912   913      1
   916   912   916      1
   917   912   917      1
   918   913   918      1
   919   918   919      1
   920   918   921      1
   921   918   922      1
   922   919   920      1
   923   919   923      1
   924   919   924      1
   925   920   925      1
