###
### Created by PolyChef-cpp17 on Mon May 12 10:39:09 2025
###

@<TRIPOS>MOLECULE
NO_INFO
345 344 1 0 0
SMALL
USER_CHARGES


@<TRIPOS>ATOM
      1 C         127.9776  273.0583   70.8252 C.3       0      M_A    0.0000
      2 C         127.3962  271.7497   71.3513 C.3       0      M_A    0.0000
      3 O         128.2550  271.1856   72.3412 O.3       0      M_A    0.0000
      4 H         128.9063  273.2907   71.3601 H         0      M_A    0.0000
      5 H         128.2548  272.9548   69.7701 H         0      M_A    0.0000
      6 H         126.4367  271.9403   71.8487 H         0      M_A    0.0000
      7 H         127.1861  271.0365   70.5410 H         0      M_A    0.0000
      8 C         129.6126  271.4687   72.0822 C.3       1      M_A    0.0000
      9 C         130.4055  270.2042   71.7666 C.3       1      M_A    0.0000
     10 O         131.7634  270.3521   72.1789 O.3       1      M_A    0.0000
     11 H         130.0518  271.9720   72.9520 H         1      M_A    0.0000
     12 H         129.6857  272.1810   71.2526 H         1      M_A    0.0000
     13 H         130.0013  269.3578   72.3362 H         1      M_A    0.0000
     14 H         130.3308  269.9247   70.7057 H         1      M_A    0.0000
     15 C         132.3347  271.5451   71.6884 C.3       2      M_A    0.0000
     16 C         133.7676  271.3329   71.2098 C.3       2      M_A    0.0000
     17 O         134.5609  272.4861   71.4863 O.3       2      M_A    0.0000
     18 H         132.3181  272.3075   72.4764 H         2      M_A    0.0000
     19 H         131.7158  271.9390   70.8742 H         2      M_A    0.0000
     20 H         134.2271  270.5034   71.7623 H         2      M_A    0.0000
     21 H         133.8104  271.0552   70.1467 H         2      M_A    0.0000
     22 C         135.7664  272.4828   70.7534 C.3       3      M_A    0.0000
     23 C         136.4435  271.1161   70.7815 C.3       3      M_A    0.0000
     24 O         137.8612  271.2613   70.7106 O.3       3      M_A    0.0000
     25 H         136.4449  273.2393   71.1656 H         3      M_A    0.0000
     26 H         135.5667  272.7876   69.7199 H         3      M_A    0.0000
     27 H         136.2329  270.6143   71.7345 H         3      M_A    0.0000
     28 H         136.0628  270.4510   69.9930 H         3      M_A    0.0000
     29 C         138.4938  270.0602   70.3263 C.3       4      M_A    0.0000
     30 C         139.9602  270.0321   70.7461 C.3       4      M_A    0.0000
     31 O         140.6660  269.0249   70.0227 O.3       4      M_A    0.0000
     32 H         138.4191  269.9413   69.2387 H         4      M_A    0.0000
     33 H         137.9571  269.2092   70.7606 H         4      M_A    0.0000
     34 H         140.4397  270.9861   70.4928 H         4      M_A    0.0000
     35 H         140.0758  269.9088   71.8326 H         4      M_A    0.0000
     36 C         140.5689  267.7638   70.6473 C.3       5      M_A    0.0000
     37 C         141.8016  266.9043   70.3846 C.3       5      M_A    0.0000
     38 O         141.4951  265.5235   70.5721 O.3       5      M_A    0.0000
     39 H         139.6735  267.2455   70.2837 H         5      M_A    0.0000
     40 H         140.4222  267.8998   71.7248 H         5      M_A    0.0000
     41 H         142.1152  267.0107   69.3383 H         5      M_A    0.0000
     42 H         142.6602  267.2169   70.9963 H         5      M_A    0.0000
     43 C         142.6263  264.7844   70.9776 C.3       6      M_A    0.0000
     44 C         143.8743  265.1833   70.1962 C.3       6      M_A    0.0000
     45 O         144.7686  264.0768   70.0877 O.3       6      M_A    0.0000
     46 H         142.4306  263.7143   70.8391 H         6      M_A    0.0000
     47 H         142.7887  264.9249   72.0522 H         6      M_A    0.0000
     48 H         143.6003  265.4594   69.1701 H         6      M_A    0.0000
     49 H         144.3685  266.0645   70.6303 H         6      M_A    0.0000
     50 C         146.1058  264.4959   69.9246 C.3       7      M_A    0.0000
     51 C         147.0934  263.3768   70.2400 C.3       7      M_A    0.0000
     52 O         148.3890  263.9148   70.5002 O.3       7      M_A    0.0000
     53 H         146.3003  265.3547   70.5781 H         7      M_A    0.0000
     54 H         146.2535  264.8566   68.9003 H         7      M_A    0.0000
     55 H         146.7871  262.8553   71.1557 H         7      M_A    0.0000
     56 H         147.1210  262.6155   69.4470 H         7      M_A    0.0000
     57 C         149.3769  262.9085   70.5438 C.3       8      M_A    0.0000
     58 C         150.6113  263.2900   69.7328 C.3       8      M_A    0.0000
     59 O         151.1271  262.1509   69.0455 O.3       8      M_A    0.0000
     60 H         148.9582  261.9706   70.1595 H         8      M_A    0.0000
     61 H         149.6521  262.7114   71.5861 H         8      M_A    0.0000
     62 H         150.3394  264.0192   68.9590 H         8      M_A    0.0000
     63 H         151.3797  263.7727   70.3538 H         8      M_A    0.0000
     64 C         152.5367  262.1637   68.9912 C.3       9      M_A    0.0000
     65 C         153.0770  261.1081   68.0315 C.3       9      M_A    0.0000
     66 O         153.9701  260.2273   68.7114 O.3       9      M_A    0.0000
     67 H         152.9412  261.9905   69.9958 H         9      M_A    0.0000
     68 H         152.8822  263.1605   68.6945 H         9      M_A    0.0000
     69 H         152.2537  260.4849   67.6597 H         9      M_A    0.0000
     70 H         153.5464  261.5585   67.1449 H         9      M_A    0.0000
     71 C         154.6504  259.3750   67.8165 C.3      10      M_A    0.0000
     72 C         153.6834  258.5536   66.9694 C.3      10      M_A    0.0000
     73 O         154.2338  257.2668   66.6919 O.3      10      M_A    0.0000
     74 H         155.3076  258.7034   68.3819 H        10      M_A    0.0000
     75 H         155.3085  259.9704   67.1735 H        10      M_A    0.0000
     76 H         152.7549  258.3775   67.5274 H        10      M_A    0.0000
     77 H         153.3935  259.0793   66.0481 H        10      M_A    0.0000
     78 C         155.5108  257.1058   67.2696 C.3      11      M_A    0.0000
     79 C         156.4350  256.2788   66.3812 C.3      11      M_A    0.0000
     80 O         157.2054  255.3736   67.1703 O.3      11      M_A    0.0000
     81 H         155.4090  256.6213   68.2482 H        11      M_A    0.0000
     82 H         155.9507  258.0904   67.4646 H        11      M_A    0.0000
     83 H         155.8404  255.6610   65.6963 H        11      M_A    0.0000
     84 H         157.0737  256.9119   65.7484 H        11      M_A    0.0000
     85 C         156.4240  254.7454   68.1628 C.3      12      M_A    0.0000
     86 C         156.8976  253.3222   68.4411 C.3      12      M_A    0.0000
     87 O         157.5933  253.2632   69.6854 O.3      12      M_A    0.0000
     88 H         155.3749  254.7294   67.8441 H        12      M_A    0.0000
     89 H         156.4513  255.3422   69.0816 H        12      M_A    0.0000
     90 H         156.0331  252.6533   68.5397 H        12      M_A    0.0000
     91 H         157.5044  252.9209   67.6165 H        12      M_A    0.0000
     92 C         158.9572  252.9476   69.5105 C.3      13      M_A    0.0000
     93 C         159.5888  253.7640   68.3873 C.3      13      M_A    0.0000
     94 O         160.8649  253.2287   68.0396 O.3      13      M_A    0.0000
     95 H         159.0578  251.8779   69.2907 H        13      M_A    0.0000
     96 H         159.4945  253.1143   70.4510 H        13      M_A    0.0000
     97 H         158.9702  253.6969   67.4832 H        13      M_A    0.0000
     98 H         159.6508  254.8326   68.6389 H        13      M_A    0.0000
     99 C         160.7566  251.9492   67.4553 C.3      14      M_A    0.0000
    100 C         162.1174  251.3974   67.0420 C.3      14      M_A    0.0000
    101 O         162.5232  250.3566   67.9296 O.3      14      M_A    0.0000
    102 H         160.0990  252.0035   66.5794 H        14      M_A    0.0000
    103 H         160.2666  251.2664   68.1587 H        14      M_A    0.0000
    104 H         162.0493  250.9428   66.0454 H        14      M_A    0.0000
    105 H         162.8778  252.1882   66.9679 H        14      M_A    0.0000
    106 C         162.4637  250.7638   69.2790 C.3      15      M_A    0.0000
    107 C         162.9829  252.1861   69.4657 C.3      15      M_A    0.0000
    108 O         164.3361  252.1669   69.9175 O.3      15      M_A    0.0000
    109 H         163.0523  250.0725   69.8941 H        15      M_A    0.0000
    110 H         161.4318  250.6848   69.6396 H        15      M_A    0.0000
    111 H         162.9876  252.7116   68.5022 H        15      M_A    0.0000
    112 H         162.3391  252.7756   70.1344 H        15      M_A    0.0000
    113 C         165.1859  252.9007   69.0633 C.3      16      M_A    0.0000
    114 C         165.0463  254.4044   69.2795 C.3      16      M_A    0.0000
    115 O         165.5304  255.1179   68.1426 O.3      16      M_A    0.0000
    116 H         164.9538  252.6548   68.0201 H        16      M_A    0.0000
    117 H         166.2239  252.5877   69.2233 H        16      M_A    0.0000
    118 H         163.9865  254.6705   69.3815 H        16      M_A    0.0000
    119 H         165.5370  254.7350   70.2063 H        16      M_A    0.0000
    120 C         166.7035  254.5362   67.6175 C.3      17      M_A    0.0000
    121 C         167.0706  255.1267   66.2596 C.3      17      M_A    0.0000
    122 O         168.1090  254.3624   65.6485 O.3      17      M_A    0.0000
    123 H         166.5615  253.4529   67.5225 H        17      M_A    0.0000
    124 H         167.5278  254.6714   68.3269 H        17      M_A    0.0000
    125 H         166.2085  255.0713   65.5827 H        17      M_A    0.0000
    126 H         167.3373  256.1911   66.3314 H        17      M_A    0.0000
    127 C         168.9104  255.1513   64.7967 C.3      18      M_A    0.0000
    128 C         170.3721  254.7161   64.8295 C.3      18      M_A    0.0000
    129 O         171.2068  255.7323   64.2759 O.3      18      M_A    0.0000
    130 H         168.8320  256.2038   65.0949 H        18      M_A    0.0000
    131 H         168.5199  255.0975   63.7741 H        18      M_A    0.0000
    132 H         170.6987  254.5817   65.8686 H        18      M_A    0.0000
    133 H         170.5253  253.7478   64.3313 H        18      M_A    0.0000
    134 C         170.5781  256.4037   63.2062 C.3      19      M_A    0.0000
    135 C         171.3776  256.2830   61.9125 C.3      19      M_A    0.0000
    136 O         170.5024  256.0875   60.8027 O.3      19      M_A    0.0000
    137 H         170.4520  257.4620   63.4645 H        19      M_A    0.0000
    138 H         169.5670  256.0044   63.0676 H        19      M_A    0.0000
    139 H         171.9171  257.2187   61.7180 H        19      M_A    0.0000
    140 H         172.1415  255.4943   61.9720 H        19      M_A    0.0000
    141 C         171.2051  255.7074   59.6399 C.3      20      M_A    0.0000
    142 C         172.0000  254.4227   59.8520 C.3      20      M_A    0.0000
    143 O         173.0942  254.3578   58.9386 O.3      20      M_A    0.0000
    144 H         171.8836  256.5165   59.3439 H        20      M_A    0.0000
    145 H         170.4998  255.5862   58.8099 H        20      M_A    0.0000
    146 H         172.4382  254.4163   60.8582 H        20      M_A    0.0000
    147 H         171.3632  253.5285   59.7881 H        20      M_A    0.0000
    148 C         172.6571  254.2451   57.6020 C.3      21      M_A    0.0000
    149 C         173.7748  253.7726   56.6776 C.3      21      M_A    0.0000
    150 O         173.9724  254.7066   55.6173 O.3      21      M_A    0.0000
    151 H         172.2806  255.2164   57.2591 H        21      M_A    0.0000
    152 H         171.8056  253.5569   57.5526 H        21      M_A    0.0000
    153 H         174.7225  253.7284   57.2294 H        21      M_A    0.0000
    154 H         173.5932  252.7572   56.2966 H        21      M_A    0.0000
    155 C         174.7544  254.1627   54.5766 C.3      22      M_A    0.0000
    156 C         176.1645  253.8195   55.0467 C.3      22      M_A    0.0000
    157 O         177.0792  253.8663   53.9527 O.3      22      M_A    0.0000
    158 H         174.8059  254.8788   53.7476 H        22      M_A    0.0000
    159 H         174.2594  253.2712   54.1750 H        22      M_A    0.0000
    160 H         176.5103  254.5695   55.7694 H        22      M_A    0.0000
    161 H         176.2016  252.8513   55.5667 H        22      M_A    0.0000
    162 C         177.1506  252.6315   53.2741 C.3      23      M_A    0.0000
    163 C         178.5748  252.3079   52.8337 C.3      23      M_A    0.0000
    164 O         178.5955  251.9205   51.4606 O.3      23      M_A    0.0000
    165 H         176.4908  252.6587   52.3986 H        23      M_A    0.0000
    166 H         176.7619  251.8363   53.9203 H        23      M_A    0.0000
    167 H         179.2025  253.2050   52.9098 H        23      M_A    0.0000
    168 H         179.0432  251.5493   53.4774 H        23      M_A    0.0000
    169 C         179.8065  251.2865   51.1115 C.3      24      M_A    0.0000
    170 C         180.2897  251.7094   49.7278 C.3      24      M_A    0.0000
    171 O         180.7926  250.5832   49.0103 O.3      24      M_A    0.0000
    172 H         179.6687  250.1989   51.1378 H        24      M_A    0.0000
    173 H         180.5682  251.5125   51.8664 H        24      M_A    0.0000
    174 H         179.4478  252.0976   49.1404 H        24      M_A    0.0000
    175 H         181.0291  252.5217   49.7796 H        24      M_A    0.0000
    176 C         181.6792  250.9680   47.9826 C.3      25      M_A    0.0000
    177 C         181.2328  252.2581   47.3019 C.3      25      M_A    0.0000
    178 O         181.6637  252.2784   45.9418 O.3      25      M_A    0.0000
    179 H         181.7470  250.1635   47.2403 H        25      M_A    0.0000
    180 H         182.6880  251.0842   48.3947 H        25      M_A    0.0000
    181 H         180.1367  252.3082   47.2783 H        25      M_A    0.0000
    182 H         181.5697  253.1507   47.8486 H        25      M_A    0.0000
    183 C         181.7246  253.5914   45.4294 C.3      26      M_A    0.0000
    184 C         182.8288  254.4085   46.0929 C.3      26      M_A    0.0000
    185 O         182.6227  255.8018   45.8646 O.3      26      M_A    0.0000
    186 H         180.7577  254.0863   45.5806 H        26      M_A    0.0000
    187 H         181.8780  253.5538   44.3449 H        26      M_A    0.0000
    188 H         182.7963  254.2667   47.1807 H        26      M_A    0.0000
    189 H         183.8298  254.0873   45.7706 H        26      M_A    0.0000
    190 C         182.8894  256.1602   44.5264 C.3      27      M_A    0.0000
    191 C         182.8635  257.6726   44.3284 C.3      27      M_A    0.0000
    192 O         182.0147  258.0170   43.2344 O.3      27      M_A    0.0000
    193 H         182.1488  255.6892   43.8690 H        27      M_A    0.0000
    194 H         183.8617  255.7535   44.2259 H        27      M_A    0.0000
    195 H         182.4356  258.1582   45.2147 H        27      M_A    0.0000
    196 H         183.8735  258.0899   44.2066 H        27      M_A    0.0000
    197 C         181.3265  259.2270   43.4638 C.3      28      M_A    0.0000
    198 C         180.6674  259.7544   42.1932 C.3      28      M_A    0.0000
    199 O         179.2977  260.0708   42.4371 O.3      28      M_A    0.0000
    200 H         182.0266  259.9754   43.8542 H        28      M_A    0.0000
    201 H         180.5760  259.0776   44.2483 H        28      M_A    0.0000
    202 H         181.1491  260.6905   41.8832 H        28      M_A    0.0000
    203 H         180.7798  259.0570   41.3504 H        28      M_A    0.0000
    204 C         178.7090  260.7367   41.3415 C.3      29      M_A    0.0000
    205 C         178.8255  259.9249   40.0552 C.3      29      M_A    0.0000
    206 O         178.9613  260.7917   38.9300 O.3      29      M_A    0.0000
    207 H         179.1909  261.7125   41.2069 H        29      M_A    0.0000
    208 H         177.6570  260.9479   41.5644 H        29      M_A    0.0000
    209 H         179.7346  259.3107   40.0820 H        29      M_A    0.0000
    210 H         177.9857  259.2259   39.9312 H        29      M_A    0.0000
    211 C         178.7234  260.1161   37.7145 C.3      30      M_A    0.0000
    212 C         180.0236  259.7202   37.0217 C.3      30      M_A    0.0000
    213 O         179.7990  259.4990   35.6302 O.3      30      M_A    0.0000
    214 H         178.1324  260.7585   37.0507 H        30      M_A    0.0000
    215 H         178.1074  259.2296   37.9035 H        30      M_A    0.0000
    216 H         180.7483  260.5415   37.0898 H        30      M_A    0.0000
    217 H         180.4978  258.8512   37.5004 H        30      M_A    0.0000
    218 C         179.4502  260.6895   34.9584 C.3      31      M_A    0.0000
    219 C         178.7532  260.4083   33.6309 C.3      31      M_A    0.0000
    220 O         177.3625  260.7135   33.7241 O.3      31      M_A    0.0000
    221 H         180.3535  261.2858   34.7818 H        31      M_A    0.0000
    222 H         178.8078  261.2989   35.6042 H        31      M_A    0.0000
    223 H         179.1601  261.0625   32.8493 H        31      M_A    0.0000
    224 H         178.9211  259.3773   33.2872 H        31      M_A    0.0000
    225 C         176.6185  259.6262   34.2285 C.3      32      M_A    0.0000
    226 C         176.5989  258.4520   33.2548 C.3      32      M_A    0.0000
    227 O         175.8659  257.3595   33.8069 O.3      32      M_A    0.0000
    228 H         175.5918  259.9520   34.4344 H        32      M_A    0.0000
    229 H         177.0352  259.3141   35.1929 H        32      M_A    0.0000
    230 H         176.0760  258.7393   32.3336 H        32      M_A    0.0000
    231 H         177.6121  258.1504   32.9520 H        32      M_A    0.0000
    232 C         175.3360  256.5215   32.8033 C.3      33      M_A    0.0000
    233 C         176.3054  256.3490   31.6382 C.3      33      M_A    0.0000
    234 O         175.6166  255.8699   30.4841 O.3      33      M_A    0.0000
    235 H         174.3917  256.9431   32.4383 H        33      M_A    0.0000
    236 H         175.0838  255.5468   33.2364 H        33      M_A    0.0000
    237 H         176.7325  257.3210   31.3603 H        33      M_A    0.0000
    238 H         177.1558  255.7034   31.9014 H        33      M_A    0.0000
    239 C         176.5069  255.3708   29.5101 C.3      34      M_A    0.0000
    240 C         177.2109  254.1024   29.9821 C.3      34      M_A    0.0000
    241 O         178.1652  253.6725   29.0124 O.3      34      M_A    0.0000
    242 H         177.2520  256.1390   29.2705 H        34      M_A    0.0000
    243 H         175.9608  255.1794   28.5795 H        34      M_A    0.0000
    244 H         177.7762  254.3083   30.9000 H        34      M_A    0.0000
    245 H         176.4977  253.3039   30.2327 H        34      M_A    0.0000
    246 C         178.0802  252.2852   28.7706 C.3      35      M_A    0.0000
    247 C         179.2116  251.7957   27.8719 C.3      35      M_A    0.0000
    248 O         178.6853  251.0968   26.7447 O.3      35      M_A    0.0000
    249 H         177.1139  252.0554   28.3055 H        35      M_A    0.0000
    250 H         178.0916  251.7463   29.7248 H        35      M_A    0.0000
    251 H         179.7675  252.6527   27.4707 H        35      M_A    0.0000
    252 H         179.9420  251.1863   28.4235 H        35      M_A    0.0000
    253 C         179.6249  251.0077   25.6961 C.3      36      M_A    0.0000
    254 C         181.0230  250.6836   26.2132 C.3      36      M_A    0.0000
    255 O         181.9890  250.8542   25.1772 O.3      36      M_A    0.0000
    256 H         179.6459  251.9555   25.1448 H        36      M_A    0.0000
    257 H         179.2991  250.2475   24.9771 H        36      M_A    0.0000
    258 H         181.2988  251.3861   27.0100 H        36      M_A    0.0000
    259 H         181.0758  249.6790   26.6572 H        36      M_A    0.0000
    260 C         183.1989  250.1915   25.4725 C.3      37      M_A    0.0000
    261 C         184.3737  251.1618   25.5467 C.3      37      M_A    0.0000
    262 O         185.5132  250.6158   24.8837 O.3      37      M_A    0.0000
    263 H         183.3950  249.4328   24.7052 H        37      M_A    0.0000
    264 H         183.0957  249.6456   26.4171 H        37      M_A    0.0000
    265 H         184.1253  252.0905   25.0173 H        37      M_A    0.0000
    266 H         184.6053  251.4505   26.5821 H        37      M_A    0.0000
    267 C         186.7162  250.9660   25.5320 C.3      38      M_A    0.0000
    268 C         187.9051  250.9351   24.5766 C.3      38      M_A    0.0000
    269 O         189.1306  250.9140   25.3072 O.3      38      M_A    0.0000
    270 H         186.8947  250.2759   26.3655 H        38      M_A    0.0000
    271 H         186.6138  251.9607   25.9804 H        38      M_A    0.0000
    272 H         187.8843  250.0117   23.9839 H        38      M_A    0.0000
    273 H         187.8760  251.7644   23.8551 H        38      M_A    0.0000
    274 C         190.1537  250.2498   24.5984 C.3      39      M_A    0.0000
    275 C         190.7624  251.1369   23.5168 C.3      39      M_A    0.0000
    276 O         191.6803  250.3907   22.7191 O.3      39      M_A    0.0000
    277 H         189.7482  249.3383   24.1430 H        39      M_A    0.0000
    278 H         190.9281  249.9183   25.2994 H        39      M_A    0.0000
    279 H         189.9768  251.4877   22.8354 H        39      M_A    0.0000
    280 H         191.2295  252.0389   23.9379 H        39      M_A    0.0000
    281 C         193.0173  250.6103   23.1122 C.3      40      M_A    0.0000
    282 C         193.8162  251.3286   22.0291 C.3      40      M_A    0.0000
    283 O         195.2047  251.0228   22.1492 O.3      40      M_A    0.0000
    284 H         193.4911  249.6487   23.3437 H        40      M_A    0.0000
    285 H         193.0344  251.1872   24.0437 H        40      M_A    0.0000
    286 H         193.5072  250.9719   21.0383 H        40      M_A    0.0000
    287 H         193.6366  252.4134   22.0353 H        40      M_A    0.0000
    288 C         195.6368  251.0603   23.4917 C.3      41      M_A    0.0000
    289 C         196.7492  252.0830   23.7012 C.3      41      M_A    0.0000
    290 O         197.9347  251.6759   23.0195 O.3      41      M_A    0.0000
    291 H         195.9898  250.0653   23.7883 H        41      M_A    0.0000
    292 H         194.7851  251.2851   24.1437 H        41      M_A    0.0000
    293 H         196.4581  253.0465   23.2638 H        41      M_A    0.0000
    294 H         196.9384  252.2739   24.7674 H        41      M_A    0.0000
    295 C         197.6766  250.6555   22.0801 C.3      42      M_A    0.0000
    296 C         198.7912  249.6142   22.0531 C.3      42      M_A    0.0000
    297 O         199.5234  249.7002   20.8314 O.3      42      M_A    0.0000
    298 H         197.5616  251.0987   21.0836 H        42      M_A    0.0000
    299 H         196.7168  250.1798   22.3115 H        42      M_A    0.0000
    300 H         199.5101  249.8155   22.8576 H        42      M_A    0.0000
    301 H         198.4102  248.5977   22.2282 H        42      M_A    0.0000
    302 C         200.5519  248.7367   20.7662 C.3      43      M_A    0.0000
    303 C         201.6268  248.9824   21.8205 C.3      43      M_A    0.0000
    304 O         202.9260  248.8094   21.2566 O.3      43      M_A    0.0000
    305 H         201.0040  248.7541   19.7673 H        43      M_A    0.0000
    306 H         200.1229  247.7354   20.8860 H        43      M_A    0.0000
    307 H         201.5782  250.0221   22.1684 H        43      M_A    0.0000
    308 H         201.4828  248.3531   22.7107 H        43      M_A    0.0000
    309 C         203.8331  248.2581   22.1859 C.3      44      M_A    0.0000
    310 C         205.2407  248.8178   22.0050 C.3      44      M_A    0.0000
    311 O         205.9606  248.7621   23.2356 O.3      44      M_A    0.0000
    312 H         203.8523  247.1675   22.0727 H        44      M_A    0.0000
    313 H         203.4751  248.4496   23.2038 H        44      M_A    0.0000
    314 H         205.8004  248.1983   21.2926 H        44      M_A    0.0000
    315 H         205.2295  249.8344   21.5860 H        44      M_A    0.0000
    316 C         206.8150  249.8734   23.3954 C.3      45      M_A    0.0000
    317 C         207.6480  250.1329   22.1441 C.3      45      M_A    0.0000
    318 O         208.5241  251.2401   22.3499 O.3      45      M_A    0.0000
    319 H         207.4786  249.7021   24.2515 H        45      M_A    0.0000
    320 H         206.2200  250.7586   23.6472 H        45      M_A    0.0000
    321 H         208.2897  249.2672   21.9362 H        45      M_A    0.0000
    322 H         207.0201  250.2715   21.2521 H        45      M_A    0.0000
    323 C         207.8791  252.4720   22.1117 C.3      46      M_A    0.0000
    324 C         207.5111  252.6445   20.6413 C.3      46      M_A    0.0000
    325 O         207.9921  253.8952   20.1511 O.3      46      M_A    0.0000
    326 H         208.5344  253.2929   22.4268 H        46      M_A    0.0000
    327 H         206.9834  252.5430   22.7392 H        46      M_A    0.0000
    328 H         208.0020  251.8689   20.0398 H        46      M_A    0.0000
    329 H         206.4311  252.5289   20.4702 H        46      M_A    0.0000
    330 C         209.1998  254.2745   20.7742 C.3      47      M_A    0.0000
    331 C         209.2156  255.7594   21.1238 C.3      47      M_A    0.0000
    332 O         210.5575  256.2240   21.2622 O.3      47      M_A    0.0000
    333 H         210.0406  254.0430   20.1094 H        47      M_A    0.0000
    334 H         209.3520  253.6695   21.6752 H        47      M_A    0.0000
    335 H         208.7715  256.3406   20.3056 H        47      M_A    0.0000
    336 H         208.6149  255.9788   22.0183 H        47      M_A    0.0000
    337 C         211.2526  256.1961   20.0349 C.3      48      M_A    0.0000
    338 C         210.6189  255.2222   19.0463 C.3      48      M_A    0.0000
    339 O         211.5669  254.2351   18.6428 O.3      48      M_A    0.0000
    340 H         212.2967  255.9126   20.2142 H        48      M_A    0.0000
    341 H         211.2828  257.2053   19.6088 H        48      M_A    0.0000
    342 H         209.7971  254.6797   19.5308 H        48      M_A    0.0000
    343 H         210.1783  255.7401   18.1821 H        48      M_A    0.0000
    344 H         212.1443  254.5575   17.9195 H        48      M_A    0.0000
    345 H         127.2782  273.8867   70.9379 H         0      M_A    0.0000
@<TRIPOS>BOND
     1     1     2      1
     2     1     4      1
     3     1     5      1
     4     1   345      1
     5     2     3      1
     6     2     6      1
     7     2     7      1
     8     3     8      1
     9     8     9      1
    10     8    11      1
    11     8    12      1
    12     9    10      1
    13     9    13      1
    14     9    14      1
    15    10    15      1
    16    15    16      1
    17    15    18      1
    18    15    19      1
    19    16    17      1
    20    16    20      1
    21    16    21      1
    22    17    22      1
    23    22    23      1
    24    22    25      1
    25    22    26      1
    26    23    24      1
    27    23    27      1
    28    23    28      1
    29    24    29      1
    30    29    30      1
    31    29    32      1
    32    29    33      1
    33    30    31      1
    34    30    34      1
    35    30    35      1
    36    31    36      1
    37    36    37      1
    38    36    39      1
    39    36    40      1
    40    37    38      1
    41    37    41      1
    42    37    42      1
    43    38    43      1
    44    43    44      1
    45    43    46      1
    46    43    47      1
    47    44    45      1
    48    44    48      1
    49    44    49      1
    50    45    50      1
    51    50    51      1
    52    50    53      1
    53    50    54      1
    54    51    52      1
    55    51    55      1
    56    51    56      1
    57    52    57      1
    58    57    58      1
    59    57    60      1
    60    57    61      1
    61    58    59      1
    62    58    62      1
    63    58    63      1
    64    59    64      1
    65    64    65      1
    66    64    67      1
    67    64    68      1
    68    65    66      1
    69    65    69      1
    70    65    70      1
    71    66    71      1
    72    71    72      1
    73    71    74      1
    74    71    75      1
    75    72    73      1
    76    72    76      1
    77    72    77      1
    78    73    78      1
    79    78    79      1
    80    78    81      1
    81    78    82      1
    82    79    80      1
    83    79    83      1
    84    79    84      1
    85    80    85      1
    86    85    86      1
    87    85    88      1
    88    85    89      1
    89    86    87      1
    90    86    90      1
    91    86    91      1
    92    87    92      1
    93    92    93      1
    94    92    95      1
    95    92    96      1
    96    93    94      1
    97    93    97      1
    98    93    98      1
    99    94    99      1
   100    99   100      1
   101    99   102      1
   102    99   103      1
   103   100   101      1
   104   100   104      1
   105   100   105      1
   106   101   106      1
   107   106   107      1
   108   106   109      1
   109   106   110      1
   110   107   108      1
   111   107   111      1
   112   107   112      1
   113   108   113      1
   114   113   114      1
   115   113   116      1
   116   113   117      1
   117   114   115      1
   118   114   118      1
   119   114   119      1
   120   115   120      1
   121   120   121      1
   122   120   123      1
   123   120   124      1
   124   121   122      1
   125   121   125      1
   126   121   126      1
   127   122   127      1
   128   127   128      1
   129   127   130      1
   130   127   131      1
   131   128   129      1
   132   128   132      1
   133   128   133      1
   134   129   134      1
   135   134   135      1
   136   134   137      1
   137   134   138      1
   138   135   136      1
   139   135   139      1
   140   135   140      1
   141   136   141      1
   142   141   142      1
   143   141   144      1
   144   141   145      1
   145   142   143      1
   146   142   146      1
   147   142   147      1
   148   143   148      1
   149   148   149      1
   150   148   151      1
   151   148   152      1
   152   149   150      1
   153   149   153      1
   154   149   154      1
   155   150   155      1
   156   155   156      1
   157   155   158      1
   158   155   159      1
   159   156   157      1
   160   156   160      1
   161   156   161      1
   162   157   162      1
   163   162   163      1
   164   162   165      1
   165   162   166      1
   166   163   164      1
   167   163   167      1
   168   163   168      1
   169   164   169      1
   170   169   170      1
   171   169   172      1
   172   169   173      1
   173   170   171      1
   174   170   174      1
   175   170   175      1
   176   171   176      1
   177   176   177      1
   178   176   179      1
   179   176   180      1
   180   177   178      1
   181   177   181      1
   182   177   182      1
   183   178   183      1
   184   183   184      1
   185   183   186      1
   186   183   187      1
   187   184   185      1
   188   184   188      1
   189   184   189      1
   190   185   190      1
   191   190   191      1
   192   190   193      1
   193   190   194      1
   194   191   192      1
   195   191   195      1
   196   191   196      1
   197   192   197      1
   198   197   198      1
   199   197   200      1
   200   197   201      1
   201   198   199      1
   202   198   202      1
   203   198   203      1
   204   199   204      1
   205   204   205      1
   206   204   207      1
   207   204   208      1
   208   205   206      1
   209   205   209      1
   210   205   210      1
   211   206   211      1
   212   211   212      1
   213   211   214      1
   214   211   215      1
   215   212   213      1
   216   212   216      1
   217   212   217      1
   218   213   218      1
   219   218   219      1
   220   218   221      1
   221   218   222      1
   222   219   220      1
   223   219   223      1
   224   219   224      1
   225   220   225      1
   226   225   226      1
   227   225   228      1
   228   225   229      1
   229   226   227      1
   230   226   230      1
   231   226   231      1
   232   227   232      1
   233   232   233      1
   234   232   235      1
   235   232   236      1
   236   233   234      1
   237   233   237      1
   238   233   238      1
   239   234   239      1
   240   239   240      1
   241   239   242      1
   242   239   243      1
   243   240   241      1
   244   240   244      1
   245   240   245      1
   246   241   246      1
   247   246   247      1
   248   246   249      1
   249   246   250      1
   250   247   248      1
   251   247   251      1
   252   247   252      1
   253   248   253      1
   254   253   254      1
   255   253   256      1
   256   253   257      1
   257   254   255      1
   258   254   258      1
   259   254   259      1
   260   255   260      1
   261   260   261      1
   262   260   263      1
   263   260   264      1
   264   261   262      1
   265   261   265      1
   266   261   266      1
   267   262   267      1
   268   267   268      1
   269   267   270      1
   270   267   271      1
   271   268   269      1
   272   268   272      1
   273   268   273      1
   274   269   274      1
   275   274   275      1
   276   274   277      1
   277   274   278      1
   278   275   276      1
   279   275   279      1
   280   275   280      1
   281   276   281      1
   282   281   282      1
   283   281   284      1
   284   281   285      1
   285   282   283      1
   286   282   286      1
   287   282   287      1
   288   283   288      1
   289   288   289      1
   290   288   291      1
   291   288   292      1
   292   289   290      1
   293   289   293      1
   294   289   294      1
   295   290   295      1
   296   295   296      1
   297   295   298      1
   298   295   299      1
   299   296   297      1
   300   296   300      1
   301   296   301      1
   302   297   302      1
   303   302   303      1
   304   302   305      1
   305   302   306      1
   306   303   304      1
   307   303   307      1
   308   303   308      1
   309   304   309      1
   310   309   310      1
   311   309   312      1
   312   309   313      1
   313   310   311      1
   314   310   314      1
   315   310   315      1
   316   311   316      1
   317   316   317      1
   318   316   319      1
   319   316   320      1
   320   317   318      1
   321   317   321      1
   322   317   322      1
   323   318   323      1
   324   323   324      1
   325   323   326      1
   326   323   327      1
   327   324   325      1
   328   324   328      1
   329   324   329      1
   330   325   330      1
   331   330   331      1
   332   330   333      1
   333   330   334      1
   334   331   332      1
   335   331   335      1
   336   331   336      1
   337   332   337      1
   338   337   338      1
   339   337   340      1
   340   337   341      1
   341   338   339      1
   342   338   342      1
   343   338   343      1
   344   339   344      1
