###
### Created by PolyChef-cpp17 on Mon May 12 10:39:13 2025
###

@<TRIPOS>MOLECULE
NO_INFO
275 274 1 0 0
SMALL
USER_CHARGES


@<TRIPOS>ATOM
      1 C         236.2838  186.1513   67.6191 C.3       0      M_A    0.0000
      2 C         236.7010  186.7507   68.9588 C.3       0      M_A    0.0000
      3 O         236.2544  185.9275   70.0362 O.3       0      M_A    0.0000
      4 H         236.6780  185.1310   67.5490 H         0      M_A    0.0000
      5 H         235.1934  186.0916   67.5352 H         0      M_A    0.0000
      6 H         237.7910  186.8916   68.9886 H         0      M_A    0.0000
      7 H         236.2579  187.7446   69.0993 H         0      M_A    0.0000
      8 C         237.2362  185.8206   71.0469 C.3       1      M_A    0.0000
      9 C         237.0071  184.6077   71.9438 C.3       1      M_A    0.0000
     10 O         238.2530  184.0219   72.3213 O.3       1      M_A    0.0000
     11 H         237.1896  186.7283   71.6593 H         1      M_A    0.0000
     12 H         238.2266  185.7860   70.5807 H         1      M_A    0.0000
     13 H         236.4164  184.8941   72.8258 H         1      M_A    0.0000
     14 H         236.4267  183.8370   71.4213 H         1      M_A    0.0000
     15 C         238.8415  184.7116   73.4053 C.3       2      M_A    0.0000
     16 C         240.2626  185.1696   73.0909 C.3       2      M_A    0.0000
     17 O         240.5293  186.4306   73.7045 O.3       2      M_A    0.0000
     18 H         238.8703  184.0297   74.2628 H         2      M_A    0.0000
     19 H         238.2040  185.5595   73.6777 H         2      M_A    0.0000
     20 H         240.9868  184.4073   73.4123 H         2      M_A    0.0000
     21 H         240.4050  185.2936   72.0101 H         2      M_A    0.0000
     22 C         240.8453  186.2829   75.0739 C.3       3      M_A    0.0000
     23 C         240.1684  187.3437   75.9370 C.3       3      M_A    0.0000
     24 O         239.7071  186.7729   77.1615 O.3       3      M_A    0.0000
     25 H         241.9318  186.3788   75.1813 H         3      M_A    0.0000
     26 H         240.5682  185.2740   75.3978 H         3      M_A    0.0000
     27 H         240.8580  188.1802   76.1205 H         3      M_A    0.0000
     28 H         239.2970  187.7696   75.4242 H         3      M_A    0.0000
     29 C         238.6053  185.9140   76.9490 C.3       4      M_A    0.0000
     30 C         238.8836  184.4933   77.4313 C.3       4      M_A    0.0000
     31 O         238.7781  184.4178   78.8529 O.3       4      M_A    0.0000
     32 H         238.4000  185.8891   75.8727 H         4      M_A    0.0000
     33 H         237.7238  186.3342   77.4447 H         4      M_A    0.0000
     34 H         238.1996  183.7855   76.9414 H         4      M_A    0.0000
     35 H         239.8990  184.1784   77.1600 H         4      M_A    0.0000
     36 C         238.6671  183.0795   79.2929 C.3       5      M_A    0.0000
     37 C         240.0311  182.4239   79.4871 C.3       5      M_A    0.0000
     38 O         240.6552  182.9096   80.6755 O.3       5      M_A    0.0000
     39 H         238.1098  182.5201   78.5328 H         5      M_A    0.0000
     40 H         238.0814  183.0549   80.2180 H         5      M_A    0.0000
     41 H         239.9265  181.3296   79.5089 H         5      M_A    0.0000
     42 H         240.6997  182.6528   78.6478 H         5      M_A    0.0000
     43 C         241.7642  183.7333   80.3778 C.3       6      M_A    0.0000
     44 C         241.9020  184.8892   81.3641 C.3       6      M_A    0.0000
     45 O         243.1311  184.7896   82.0833 O.3       6      M_A    0.0000
     46 H         241.6199  184.1416   79.3709 H         6      M_A    0.0000
     47 H         242.6708  183.1191   80.3593 H         6      M_A    0.0000
     48 H         241.8246  185.8503   80.8357 H         6      M_A    0.0000
     49 H         241.0887  184.8761   82.1004 H         6      M_A    0.0000
     50 C         244.2416  184.7712   81.2095 C.3       7      M_A    0.0000
     51 C         245.5220  185.2339   81.8984 C.3       7      M_A    0.0000
     52 O         246.2255  184.1197   82.4477 O.3       7      M_A    0.0000
     53 H         244.0244  185.4467   80.3742 H         7      M_A    0.0000
     54 H         244.3562  183.7625   80.7985 H         7      M_A    0.0000
     55 H         246.1510  185.7955   81.1928 H         7      M_A    0.0000
     56 H         245.2974  185.9202   82.7244 H         7      M_A    0.0000
     57 C         247.6223  184.2593   82.2859 C.3       8      M_A    0.0000
     58 C         248.4036  183.4108   83.2848 C.3       8      M_A    0.0000
     59 O         248.6531  182.1109   82.7500 O.3       8      M_A    0.0000
     60 H         247.8760  185.3141   82.4420 H         8      M_A    0.0000
     61 H         247.8900  184.0032   81.2552 H         8      M_A    0.0000
     62 H         249.3403  183.9160   83.5611 H         8      M_A    0.0000
     63 H         247.8379  183.2799   84.2158 H         8      M_A    0.0000
     64 C         248.8809  181.1650   83.7748 C.3       9      M_A    0.0000
     65 C         249.2347  179.7892   83.2179 C.3       9      M_A    0.0000
     66 O         250.5801  179.4459   83.5495 O.3       9      M_A    0.0000
     67 H         247.9625  181.0822   84.3672 H         9      M_A    0.0000
     68 H         249.6695  181.5382   84.4368 H         9      M_A    0.0000
     69 H         248.5262  179.0353   83.5904 H         9      M_A    0.0000
     70 H         249.1522  179.7754   82.1240 H         9      M_A    0.0000
     71 C         250.7512  178.0456   83.6320 C.3      10      M_A    0.0000
     72 C         252.0562  177.5877   82.9874 C.3      10      M_A    0.0000
     73 O         252.7211  176.6397   83.8223 O.3      10      M_A    0.0000
     74 H         249.9123  177.5722   83.1091 H        10      M_A    0.0000
     75 H         250.7010  177.7407   84.6827 H        10      M_A    0.0000
     76 H         251.8608  177.1728   81.9882 H        10      M_A    0.0000
     77 H         252.7399  178.4334   82.8416 H        10      M_A    0.0000
     78 C         252.5094  175.3167   83.3730 C.3      11      M_A    0.0000
     79 C         253.7171  174.4215   83.6342 C.3      11      M_A    0.0000
     80 O         253.2962  173.1098   84.0086 O.3      11      M_A    0.0000
     81 H         252.3219  175.3533   82.2938 H        11      M_A    0.0000
     82 H         251.6096  174.9163   83.8521 H        11      M_A    0.0000
     83 H         254.3683  174.3949   82.7487 H        11      M_A    0.0000
     84 H         254.3288  174.8169   84.4547 H        11      M_A    0.0000
     85 C         254.3871  172.3177   84.4321 C.3      12      M_A    0.0000
     86 C         254.1954  170.8442   84.0856 C.3      12      M_A    0.0000
     87 O         255.0863  170.4560   83.0399 O.3      12      M_A    0.0000
     88 H         254.4739  172.4178   85.5201 H        12      M_A    0.0000
     89 H         255.3080  172.7115   83.9888 H        12      M_A    0.0000
     90 H         254.3353  170.2224   84.9815 H        12      M_A    0.0000
     91 H         253.1736  170.6532   83.7345 H        12      M_A    0.0000
     92 C         254.8026  169.1515   82.5765 C.3      13      M_A    0.0000
     93 C         255.6146  168.7940   81.3351 C.3      13      M_A    0.0000
     94 O         256.3269  167.5734   81.5373 O.3      13      M_A    0.0000
     95 H         253.7362  169.1068   82.3276 H        13      M_A    0.0000
     96 H         254.9839  168.4372   83.3867 H        13      M_A    0.0000
     97 H         254.9569  168.7322   80.4562 H        13      M_A    0.0000
     98 H         256.3544  169.5729   81.1121 H        13      M_A    0.0000
     99 C         257.2265  167.3180   80.4780 C.3      14      M_A    0.0000
    100 C         257.7456  165.8833   80.4990 C.3      14      M_A    0.0000
    101 O         256.9012  165.0341   79.7221 O.3      14      M_A    0.0000
    102 H         258.0750  168.0036   80.5837 H        14      M_A    0.0000
    103 H         256.7329  167.5459   79.5272 H        14      M_A    0.0000
    104 H         258.7845  165.8504   80.1405 H        14      M_A    0.0000
    105 H         257.7599  165.4859   81.5215 H        14      M_A    0.0000
    106 C         257.3845  163.7064   79.6978 C.3      15      M_A    0.0000
    107 C         256.2958  162.7060   79.3207 C.3      15      M_A    0.0000
    108 O         256.5675  162.1283   78.0438 O.3      15      M_A    0.0000
    109 H         257.7563  163.4647   80.7001 H        15      M_A    0.0000
    110 H         258.2322  163.6473   79.0068 H        15      M_A    0.0000
    111 H         256.2046  161.9335   80.0978 H        15      M_A    0.0000
    112 H         255.3165  163.1966   79.2576 H        15      M_A    0.0000
    113 C         255.4853  161.3400   77.5919 C.3      16      M_A    0.0000
    114 C         255.6122  160.9842   76.1135 C.3      16      M_A    0.0000
    115 O         255.4571  159.5781   75.9221 O.3      16      M_A    0.0000
    116 H         254.5643  161.9154   77.7402 H        16      M_A    0.0000
    117 H         255.4163  160.4391   78.2108 H        16      M_A    0.0000
    118 H         254.8790  161.5515   75.5224 H        16      M_A    0.0000
    119 H         256.6007  161.2614   75.7265 H        16      M_A    0.0000
    120 C         254.1985  159.1293   76.3816 C.3      17      M_A    0.0000
    121 C         253.3498  158.5480   75.2547 C.3      17      M_A    0.0000
    122 O         253.6128  157.1536   75.0982 O.3      17      M_A    0.0000
    123 H         253.6724  159.9875   76.8151 H        17      M_A    0.0000
    124 H         254.3505  158.3958   77.1806 H        17      M_A    0.0000
    125 H         252.2835  158.7346   75.4475 H        17      M_A    0.0000
    126 H         253.5798  159.0350   74.2987 H        17      M_A    0.0000
    127 C         252.4800  156.4655   74.6081 C.3      18      M_A    0.0000
    128 C         252.3618  156.5622   73.0900 C.3      18      M_A    0.0000
    129 O         253.1973  155.5911   72.4600 O.3      18      M_A    0.0000
    130 H         251.5898  156.9153   75.0624 H        18      M_A    0.0000
    131 H         252.5271  155.4213   74.9352 H        18      M_A    0.0000
    132 H         251.3125  156.4463   72.7828 H        18      M_A    0.0000
    133 H         252.6799  157.5499   72.7336 H        18      M_A    0.0000
    134 C         254.4279  156.1538   72.0527 C.3      19      M_A    0.0000
    135 C         255.2860  155.1581   71.2779 C.3      19      M_A    0.0000
    136 O         255.4135  155.5618   69.9146 O.3      19      M_A    0.0000
    137 H         254.9707  156.4646   72.9527 H        19      M_A    0.0000
    138 H         254.2306  157.0522   71.4581 H        19      M_A    0.0000
    139 H         256.2699  155.0516   71.7570 H        19      M_A    0.0000
    140 H         254.8309  154.1597   71.2836 H        19      M_A    0.0000
    141 C         256.2118  154.6567   69.1796 C.3      20      M_A    0.0000
    142 C         255.6516  153.2379   69.2145 C.3      20      M_A    0.0000
    143 O         256.4833  152.3527   68.4645 O.3      20      M_A    0.0000
    144 H         257.2137  154.6532   69.6241 H        20      M_A    0.0000
    145 H         256.3073  155.0188   68.1504 H        20      M_A    0.0000
    146 H         255.5421  152.8985   70.2546 H        20      M_A    0.0000
    147 H         254.6486  153.2008   68.7712 H        20      M_A    0.0000
    148 C         256.3250  151.0131   68.8853 C.3      21      M_A    0.0000
    149 C         256.2573  150.0455   67.7075 C.3      21      M_A    0.0000
    150 O         256.5620  148.7173   68.1329 O.3      21      M_A    0.0000
    151 H         255.3897  150.9465   69.4530 H        21      M_A    0.0000
    152 H         257.1438  150.7526   69.5644 H        21      M_A    0.0000
    153 H         255.2675  150.0957   67.2314 H        21      M_A    0.0000
    154 H         256.9857  150.3177   66.9334 H        21      M_A    0.0000
    155 C         255.9994  147.7544   67.2649 C.3      22      M_A    0.0000
    156 C         256.0505  148.1973   65.8057 C.3      22      M_A    0.0000
    157 O         255.4424  147.2178   64.9638 O.3      22      M_A    0.0000
    158 H         254.9523  147.6100   67.5551 H        22      M_A    0.0000
    159 H         256.5170  146.7997   67.4067 H        22      M_A    0.0000
    160 H         255.5687  149.1788   65.6898 H        22      M_A    0.0000
    161 H         257.0874  148.3214   65.4692 H        22      M_A    0.0000
    162 C         254.0352  147.3470   64.9530 C.3      23      M_A    0.0000
    163 C         253.5822  148.6354   64.2727 C.3      23      M_A    0.0000
    164 O         253.1996  148.3801   62.9213 O.3      23      M_A    0.0000
    165 H         253.6895  147.3547   65.9930 H        23      M_A    0.0000
    166 H         253.5995  146.4683   64.4656 H        23      M_A    0.0000
    167 H         252.7609  149.0959   64.8406 H        23      M_A    0.0000
    168 H         254.3933  149.3739   64.2506 H        23      M_A    0.0000
    169 C         252.6387  147.0911   62.7773 C.3      24      M_A    0.0000
    170 C         252.1552  146.8311   61.3536 C.3      24      M_A    0.0000
    171 O         253.0853  146.0062   60.6520 O.3      24      M_A    0.0000
    172 H         251.7850  147.0168   63.4607 H        24      M_A    0.0000
    173 H         253.3768  146.3436   63.0868 H        24      M_A    0.0000
    174 H         251.1529  146.3793   61.3698 H        24      M_A    0.0000
    175 H         252.0610  147.7698   60.7934 H        24      M_A    0.0000
    176 C         252.7406  145.8833   59.2872 C.3      25      M_A    0.0000
    177 C         252.9380  147.1904   58.5252 C.3      25      M_A    0.0000
    178 O         252.6170  147.0184   57.1448 O.3      25      M_A    0.0000
    179 H         251.6843  145.5961   59.2309 H        25      M_A    0.0000
    180 H         253.3281  145.0734   58.8417 H        25      M_A    0.0000
    181 H         252.3346  147.9894   58.9795 H        25      M_A    0.0000
    182 H         253.9820  147.5233   58.5806 H        25      M_A    0.0000
    183 C         251.4166  147.6828   56.8064 C.3      26      M_A    0.0000
    184 C         250.8207  147.1626   55.5016 C.3      26      M_A    0.0000
    185 O         249.3963  147.2528   55.5309 O.3      26      M_A    0.0000
    186 H         251.6422  148.7493   56.6927 H        26      M_A    0.0000
    187 H         250.7063  147.5808   57.6337 H        26      M_A    0.0000
    188 H         251.2389  147.7138   54.6471 H        26      M_A    0.0000
    189 H         251.0799  146.1081   55.3446 H        26      M_A    0.0000
    190 C         248.8740  147.6001   54.2646 C.3      27      M_A    0.0000
    191 C         247.4729  147.0363   54.0472 C.3      27      M_A    0.0000
    192 O         246.7637  147.8155   53.0840 O.3      27      M_A    0.0000
    193 H         249.5437  147.1903   53.4999 H        27      M_A    0.0000
    194 H         248.8817  148.6905   54.1617 H        27      M_A    0.0000
    195 H         247.5314  145.9812   53.7433 H        27      M_A    0.0000
    196 H         246.8926  147.0571   54.9781 H        27      M_A    0.0000
    197 C         246.3960  147.0403   51.9611 C.3      28      M_A    0.0000
    198 C         245.4664  145.8902   52.3370 C.3      28      M_A    0.0000
    199 O         244.6875  145.4876   51.2105 O.3      28      M_A    0.0000
    200 H         247.3115  146.6273   51.5223 H        28      M_A    0.0000
    201 H         245.9348  147.6927   51.2120 H        28      M_A    0.0000
    202 H         246.0476  145.0494   52.7423 H        28      M_A    0.0000
    203 H         244.7686  146.1920   53.1280 H        28      M_A    0.0000
    204 C         245.4648  145.4501   50.0310 C.3      29      M_A    0.0000
    205 C         246.0218  144.0567   49.7546 C.3      29      M_A    0.0000
    206 O         245.6423  143.6155   48.4511 O.3      29      M_A    0.0000
    207 H         246.3008  146.1477   50.1560 H        29      M_A    0.0000
    208 H         244.8582  145.8069   49.1918 H        29      M_A    0.0000
    209 H         247.1147  144.0541   49.8752 H        29      M_A    0.0000
    210 H         245.6306  143.3275   50.4751 H        29      M_A    0.0000
    211 C         245.9883  142.2614   48.2423 C.3      30      M_A    0.0000
    212 C         245.1327  141.3146   49.0787 C.3      30      M_A    0.0000
    213 O         244.6788  140.2177   48.2857 O.3      30      M_A    0.0000
    214 H         247.0391  142.1344   48.5267 H        30      M_A    0.0000
    215 H         245.9040  142.0316   47.1748 H        30      M_A    0.0000
    216 H         245.6976  140.9672   49.9557 H        30      M_A    0.0000
    217 H         244.2447  141.8282   49.4678 H        30      M_A    0.0000
    218 C         245.4031  140.1192   47.0763 C.3      31      M_A    0.0000
    219 C         245.2607  138.7433   46.4323 C.3      31      M_A    0.0000
    220 O         244.2727  138.7727   45.4023 O.3      31      M_A    0.0000
    221 H         246.4608  140.2975   47.3015 H        31      M_A    0.0000
    222 H         245.0714  140.9105   46.3957 H        31      M_A    0.0000
    223 H         246.2320  138.4032   46.0451 H        31      M_A    0.0000
    224 H         244.9442  137.9954   47.1699 H        31      M_A    0.0000
    225 C         243.5766  137.5457   45.3182 C.3      32      M_A    0.0000
    226 C         242.7750  137.4279   44.0253 C.3      32      M_A    0.0000
    227 O         243.1977  136.2884   43.2764 O.3      32      M_A    0.0000
    228 H         242.8877  137.4901   46.1688 H        32      M_A    0.0000
    229 H         244.2915  136.7219   45.4165 H        32      M_A    0.0000
    230 H         241.6993  137.3832   44.2484 H        32      M_A    0.0000
    231 H         242.9216  138.3109   43.3906 H        32      M_A    0.0000
    232 C         242.6017  136.2612   41.9954 C.3      33      M_A    0.0000
    233 C         242.6221  134.8642   41.3823 C.3      33      M_A    0.0000
    234 O         241.4937  134.1082   41.8218 O.3      33      M_A    0.0000
    235 H         243.1656  136.9413   41.3469 H        33      M_A    0.0000
    236 H         241.5788  136.6457   42.0690 H        33      M_A    0.0000
    237 H         242.6555  134.9316   40.2853 H        33      M_A    0.0000
    238 H         243.5229  134.3158   41.6848 H        33      M_A    0.0000
    239 C         241.7450  132.7191   41.7576 C.3      34      M_A    0.0000
    240 C         241.1696  131.9754   42.9592 C.3      34      M_A    0.0000
    241 O         240.5685  130.7479   42.5473 O.3      34      M_A    0.0000
    242 H         242.8312  132.5737   41.7375 H        34      M_A    0.0000
    243 H         241.3408  132.3258   40.8187 H        34      M_A    0.0000
    244 H         241.9538  131.8042   43.7107 H        34      M_A    0.0000
    245 H         240.3930  132.5715   43.4547 H        34      M_A    0.0000
    246 C         241.5399  129.8121   42.1260 C.3      35      M_A    0.0000
    247 C         241.1969  128.3916   42.5648 C.3      35      M_A    0.0000
    248 O         241.4641  127.4645   41.5127 O.3      35      M_A    0.0000
    249 H         242.4994  130.0988   42.5714 H        35      M_A    0.0000
    250 H         241.6480  129.8745   41.0379 H        35      M_A    0.0000
    251 H         241.7524  128.1317   43.4774 H        35      M_A    0.0000
    252 H         240.1326  128.3047   42.8167 H        35      M_A    0.0000
    253 C         242.8354  127.1279   41.4558 C.3      36      M_A    0.0000
    254 C         243.0750  125.8206   40.7063 C.3      36      M_A    0.0000
    255 O         244.3171  125.8667   40.0041 O.3      36      M_A    0.0000
    256 H         243.1985  127.0188   42.4841 H        36      M_A    0.0000
    257 H         243.3874  127.9543   40.9955 H        36      M_A    0.0000
    258 H         243.0415  124.9715   41.4041 H        36      M_A    0.0000
    259 H         242.2854  125.6422   39.9658 H        36      M_A    0.0000
    260 C         244.4750  124.7457   39.1584 C.3      37      M_A    0.0000
    261 C         245.9353  124.3208   39.0351 C.3      37      M_A    0.0000
    262 O         246.0289  123.0001   38.5013 O.3      37      M_A    0.0000
    263 H         244.0997  125.0173   38.1651 H        37      M_A    0.0000
    264 H         243.8548  123.9247   39.5337 H        37      M_A    0.0000
    265 H         246.4895  125.0420   38.4174 H        37      M_A    0.0000
    266 H         246.4264  124.3140   40.0162 H        37      M_A    0.0000
    267 C         244.8634  122.2486   38.7729 C.3      38      M_A    0.0000
    268 C         245.0954  121.2014   39.8581 C.3      38      M_A    0.0000
    269 O         244.1786  121.3866   40.9365 O.3      38      M_A    0.0000
    270 H         244.5666  121.7410   37.8480 H        38      M_A    0.0000
    271 H         244.0539  122.9323   39.0499 H        38      M_A    0.0000
    272 H         245.0144  120.1905   39.4334 H        38      M_A    0.0000
    273 H         246.1087  121.2818   40.2710 H        38      M_A    0.0000
    274 H         243.3745  120.8383   40.8218 H        38      M_A    0.0000
    275 H         236.6748  186.7204   66.7757 H         0      M_A    0.0000
@<TRIPOS>BOND
     1     1     2      1
     2     1     4      1
     3     1     5      1
     4     1   275      1
     5     2     3      1
     6     2     6      1
     7     2     7      1
     8     3     8      1
     9     8     9      1
    10     8    11      1
    11     8    12      1
    12     9    10      1
    13     9    13      1
    14     9    14      1
    15    10    15      1
    16    15    16      1
    17    15    18      1
    18    15    19      1
    19    16    17      1
    20    16    20      1
    21    16    21      1
    22    17    22      1
    23    22    23      1
    24    22    25      1
    25    22    26      1
    26    23    24      1
    27    23    27      1
    28    23    28      1
    29    24    29      1
    30    29    30      1
    31    29    32      1
    32    29    33      1
    33    30    31      1
    34    30    34      1
    35    30    35      1
    36    31    36      1
    37    36    37      1
    38    36    39      1
    39    36    40      1
    40    37    38      1
    41    37    41      1
    42    37    42      1
    43    38    43      1
    44    43    44      1
    45    43    46      1
    46    43    47      1
    47    44    45      1
    48    44    48      1
    49    44    49      1
    50    45    50      1
    51    50    51      1
    52    50    53      1
    53    50    54      1
    54    51    52      1
    55    51    55      1
    56    51    56      1
    57    52    57      1
    58    57    58      1
    59    57    60      1
    60    57    61      1
    61    58    59      1
    62    58    62      1
    63    58    63      1
    64    59    64      1
    65    64    65      1
    66    64    67      1
    67    64    68      1
    68    65    66      1
    69    65    69      1
    70    65    70      1
    71    66    71      1
    72    71    72      1
    73    71    74      1
    74    71    75      1
    75    72    73      1
    76    72    76      1
    77    72    77      1
    78    73    78      1
    79    78    79      1
    80    78    81      1
    81    78    82      1
    82    79    80      1
    83    79    83      1
    84    79    84      1
    85    80    85      1
    86    85    86      1
    87    85    88      1
    88    85    89      1
    89    86    87      1
    90    86    90      1
    91    86    91      1
    92    87    92      1
    93    92    93      1
    94    92    95      1
    95    92    96      1
    96    93    94      1
    97    93    97      1
    98    93    98      1
    99    94    99      1
   100    99   100      1
   101    99   102      1
   102    99   103      1
   103   100   101      1
   104   100   104      1
   105   100   105      1
   106   101   106      1
   107   106   107      1
   108   106   109      1
   109   106   110      1
   110   107   108      1
   111   107   111      1
   112   107   112      1
   113   108   113      1
   114   113   114      1
   115   113   116      1
   116   113   117      1
   117   114   115      1
   118   114   118      1
   119   114   119      1
   120   115   120      1
   121   120   121      1
   122   120   123      1
   123   120   124      1
   124   121   122      1
   125   121   125      1
   126   121   126      1
   127   122   127      1
   128   127   128      1
   129   127   130      1
   130   127   131      1
   131   128   129      1
   132   128   132      1
   133   128   133      1
   134   129   134      1
   135   134   135      1
   136   134   137      1
   137   134   138      1
   138   135   136      1
   139   135   139      1
   140   135   140      1
   141   136   141      1
   142   141   142      1
   143   141   144      1
   144   141   145      1
   145   142   143      1
   146   142   146      1
   147   142   147      1
   148   143   148      1
   149   148   149      1
   150   148   151      1
   151   148   152      1
   152   149   150      1
   153   149   153      1
   154   149   154      1
   155   150   155      1
   156   155   156      1
   157   155   158      1
   158   155   159      1
   159   156   157      1
   160   156   160      1
   161   156   161      1
   162   157   162      1
   163   162   163      1
   164   162   165      1
   165   162   166      1
   166   163   164      1
   167   163   167      1
   168   163   168      1
   169   164   169      1
   170   169   170      1
   171   169   172      1
   172   169   173      1
   173   170   171      1
   174   170   174      1
   175   170   175      1
   176   171   176      1
   177   176   177      1
   178   176   179      1
   179   176   180      1
   180   177   178      1
   181   177   181      1
   182   177   182      1
   183   178   183      1
   184   183   184      1
   185   183   186      1
   186   183   187      1
   187   184   185      1
   188   184   188      1
   189   184   189      1
   190   185   190      1
   191   190   191      1
   192   190   193      1
   193   190   194      1
   194   191   192      1
   195   191   195      1
   196   191   196      1
   197   192   197      1
   198   197   198      1
   199   197   200      1
   200   197   201      1
   201   198   199      1
   202   198   202      1
   203   198   203      1
   204   199   204      1
   205   204   205      1
   206   204   207      1
   207   204   208      1
   208   205   206      1
   209   205   209      1
   210   205   210      1
   211   206   211      1
   212   211   212      1
   213   211   214      1
   214   211   215      1
   215   212   213      1
   216   212   216      1
   217   212   217      1
   218   213   218      1
   219   218   219      1
   220   218   221      1
   221   218   222      1
   222   219   220      1
   223   219   223      1
   224   219   224      1
   225   220   225      1
   226   225   226      1
   227   225   228      1
   228   225   229      1
   229   226   227      1
   230   226   230      1
   231   226   231      1
   232   227   232      1
   233   232   233      1
   234   232   235      1
   235   232   236      1
   236   233   234      1
   237   233   237      1
   238   233   238      1
   239   234   239      1
   240   239   240      1
   241   239   242      1
   242   239   243      1
   243   240   241      1
   244   240   244      1
   245   240   245      1
   246   241   246      1
   247   246   247      1
   248   246   249      1
   249   246   250      1
   250   247   248      1
   251   247   251      1
   252   247   252      1
   253   248   253      1
   254   253   254      1
   255   253   256      1
   256   253   257      1
   257   254   255      1
   258   254   258      1
   259   254   259      1
   260   255   260      1
   261   260   261      1
   262   260   263      1
   263   260   264      1
   264   261   262      1
   265   261   265      1
   266   261   266      1
   267   262   267      1
   268   267   268      1
   269   267   270      1
   270   267   271      1
   271   268   269      1
   272   268   272      1
   273   268   273      1
   274   269   274      1
