###
### Created by PolyChef-cpp17 on Mon May 12 10:39:07 2025
###

@<TRIPOS>MOLECULE
NO_INFO
1066 1065 1 0 0
SMALL
USER_CHARGES


@<TRIPOS>ATOM
      1 C         189.9811   61.9823   59.3416 C.3       0      M_A    0.0000
      2 C         191.2538   62.5594   59.9486 C.3       0      M_A    0.0000
      3 O         191.8736   61.5560   60.7516 O.3       0      M_A    0.0000
      4 H         190.2026   61.5145   58.3756 H         0      M_A    0.0000
      5 H         189.5886   61.2041   60.0059 H         0      M_A    0.0000
      6 H         190.9733   63.4193   60.5731 H         0      M_A    0.0000
      7 H         191.9492   62.9010   59.1702 H         0      M_A    0.0000
      8 C         191.1532   61.3597   61.9496 C.3       1      M_A    0.0000
      9 C         191.3678   59.9734   62.5442 C.3       1      M_A    0.0000
     10 O         190.0958   59.3570   62.7388 O.3       1      M_A    0.0000
     11 H         190.0876   61.5253   61.7542 H         1      M_A    0.0000
     12 H         191.4798   62.1144   62.6740 H         1      M_A    0.0000
     13 H         191.8784   60.0929   63.5102 H         1      M_A    0.0000
     14 H         191.9921   59.3498   61.8904 H         1      M_A    0.0000
     15 C         190.1884   58.3061   63.6767 C.3       2      M_A    0.0000
     16 C         190.6481   56.9963   63.0486 C.3       2      M_A    0.0000
     17 O         189.7268   55.9680   63.4086 O.3       2      M_A    0.0000
     18 H         189.2124   58.1719   64.1569 H         2      M_A    0.0000
     19 H         190.9034   58.6011   64.4530 H         2      M_A    0.0000
     20 H         191.6461   56.7612   63.4443 H         2      M_A    0.0000
     21 H         190.7126   57.0778   61.9553 H         2      M_A    0.0000
     22 C         190.3426   54.6996   63.3405 C.3       3      M_A    0.0000
     23 C         190.1861   54.0427   61.9747 C.3       3      M_A    0.0000
     24 O         189.1087   53.1094   62.0366 O.3       3      M_A    0.0000
     25 H         189.9173   54.0564   64.1193 H         3      M_A    0.0000
     26 H         191.4094   54.8241   63.5577 H         3      M_A    0.0000
     27 H         191.1233   53.5187   61.7400 H         3      M_A    0.0000
     28 H         189.9935   54.7883   61.1918 H         3      M_A    0.0000
     29 C         188.4222   53.2200   63.2651 C.3       4      M_A    0.0000
     30 C         186.9811   52.7328   63.1792 C.3       4      M_A    0.0000
     31 O         186.1413   53.8419   62.8623 O.3       4      M_A    0.0000
     32 H         188.4479   54.2654   63.5932 H         4      M_A    0.0000
     33 H         188.9577   52.6235   64.0123 H         4      M_A    0.0000
     34 H         186.7028   52.3194   64.1588 H         4      M_A    0.0000
     35 H         186.8689   51.9470   62.4203 H         4      M_A    0.0000
     36 C         184.7913   53.5435   63.1475 C.3       5      M_A    0.0000
     37 C         183.9878   53.2037   61.8984 C.3       5      M_A    0.0000
     38 O         182.7272   53.8682   61.9703 O.3       5      M_A    0.0000
     39 H         184.3406   54.3981   63.6649 H         5      M_A    0.0000
     40 H         184.7663   52.6887   63.8328 H         5      M_A    0.0000
     41 H         183.8373   52.1151   61.8765 H         5      M_A    0.0000
     42 H         184.5201   53.5043   60.9861 H         5      M_A    0.0000
     43 C         181.7030   53.0549   61.4391 C.3       6      M_A    0.0000
     44 C         180.5559   53.8652   60.8483 C.3       6      M_A    0.0000
     45 O         179.3335   53.4251   61.4381 O.3       6      M_A    0.0000
     46 H         181.3296   52.3932   62.2289 H         6      M_A    0.0000
     47 H         182.1373   52.4248   60.6548 H         6      M_A    0.0000
     48 H         180.5354   53.6853   59.7642 H         6      M_A    0.0000
     49 H         180.6930   54.9404   61.0246 H         6      M_A    0.0000
     50 C         178.2952   53.4088   60.4819 C.3       7      M_A    0.0000
     51 C         176.9315   53.7134   61.0895 C.3       7      M_A    0.0000
     52 O         175.9660   52.8377   60.5091 O.3       7      M_A    0.0000
     53 H         178.2792   52.4286   59.9920 H         7      M_A    0.0000
     54 H         178.5218   54.1596   59.7166 H         7      M_A    0.0000
     55 H         176.6801   54.7573   60.8550 H         7      M_A    0.0000
     56 H         176.9432   53.5902   62.1808 H         7      M_A    0.0000
     57 C         176.3910   52.3991   59.2365 C.3       8      M_A    0.0000
     58 C         175.3032   52.5264   58.1773 C.3       8      M_A    0.0000
     59 O         174.7065   51.2457   57.9780 O.3       8      M_A    0.0000
     60 H         176.7231   51.3575   59.3127 H         8      M_A    0.0000
     61 H         177.2551   53.0027   58.9365 H         8      M_A    0.0000
     62 H         175.7742   52.8698   57.2455 H         8      M_A    0.0000
     63 H         174.5381   53.2558   58.4751 H         8      M_A    0.0000
     64 C         173.9757   51.2177   56.7706 C.3       9      M_A    0.0000
     65 C         172.4785   51.0440   56.9935 C.3       9      M_A    0.0000
     66 O         172.0703   49.8057   56.4139 O.3       9      M_A    0.0000
     67 H         174.3600   50.4065   56.1419 H         9      M_A    0.0000
     68 H         174.1517   52.1609   56.2412 H         9      M_A    0.0000
     69 H         171.9619   51.8782   56.4984 H         9      M_A    0.0000
     70 H         172.2287   51.0594   58.0628 H         9      M_A    0.0000
     71 C         170.6671   49.7619   56.2664 C.3      10      M_A    0.0000
     72 C         170.1308   48.3395   56.1642 C.3      10      M_A    0.0000
     73 O         169.5338   48.1667   54.8798 O.3      10      M_A    0.0000
     74 H         170.3858   50.3359   55.3761 H        10      M_A    0.0000
     75 H         170.2153   50.2532   57.1355 H        10      M_A    0.0000
     76 H         169.3750   48.2036   56.9504 H        10      M_A    0.0000
     77 H         170.9289   47.5994   56.3107 H        10      M_A    0.0000
     78 C         169.2445   46.8056   54.6426 C.3      11      M_A    0.0000
     79 C         169.7352   46.3289   53.2812 C.3      11      M_A    0.0000
     80 O         168.6171   45.8545   52.5323 O.3      11      M_A    0.0000
     81 H         168.1627   46.6525   54.7283 H        11      M_A    0.0000
     82 H         169.7279   46.2106   55.4257 H        11      M_A    0.0000
     83 H         170.4512   45.5112   53.4449 H        11      M_A    0.0000
     84 H         170.2403   47.1353   52.7330 H        11      M_A    0.0000
     85 C         168.0766   46.8859   51.7344 C.3      12      M_A    0.0000
     86 C         166.5553   46.9415   51.7968 C.3      12      M_A    0.0000
     87 O         166.0383   46.8179   50.4727 O.3      12      M_A    0.0000
     88 H         168.4067   46.7437   50.6991 H        12      M_A    0.0000
     89 H         168.4844   47.8406   52.0854 H        12      M_A    0.0000
     90 H         166.2676   47.9130   52.2226 H        12      M_A    0.0000
     91 H         166.1515   46.1437   52.4344 H        12      M_A    0.0000
     92 C         164.6358   46.9784   50.4672 C.3      13      M_A    0.0000
     93 C         163.9370   46.0766   51.4771 C.3      13      M_A    0.0000
     94 O         162.5677   45.9415   51.0992 O.3      13      M_A    0.0000
     95 H         164.2594   46.7769   49.4579 H        13      M_A    0.0000
     96 H         164.4093   48.0241   50.7043 H        13      M_A    0.0000
     97 H         164.0083   46.5529   52.4650 H        13      M_A    0.0000
     98 H         164.4127   45.0880   51.5272 H        13      M_A    0.0000
     99 C         162.4597   45.4355   49.7859 C.3      14      M_A    0.0000
    100 C         161.2278   45.9551   49.0552 C.3      14      M_A    0.0000
    101 O         160.2600   44.9088   48.9886 O.3      14      M_A    0.0000
    102 H         162.4393   44.3406   49.8279 H        14      M_A    0.0000
    103 H         163.3567   45.7305   49.2297 H        14      M_A    0.0000
    104 H         161.5327   46.2491   48.0409 H        14      M_A    0.0000
    105 H         160.8011   46.8306   49.5627 H        14      M_A    0.0000
    106 C         159.1414   45.3110   48.2274 C.3      15      M_A    0.0000
    107 C         157.8214   45.0687   48.9488 C.3      15      M_A    0.0000
    108 O         156.7703   45.0457   47.9842 O.3      15      M_A    0.0000
    109 H         159.1521   44.7761   47.2709 H        15      M_A    0.0000
    110 H         159.2401   46.3808   48.0114 H        15      M_A    0.0000
    111 H         157.6636   45.8951   49.6560 H        15      M_A    0.0000
    112 H         157.8390   44.1241   49.5087 H        15      M_A    0.0000
    113 C         157.1749   44.3558   46.8210 C.3      16      M_A    0.0000
    114 C         156.3437   44.7260   45.5989 C.3      16      M_A    0.0000
    115 O         155.2239   43.8450   45.5232 O.3      16      M_A    0.0000
    116 H         157.1115   43.2777   47.0077 H        16      M_A    0.0000
    117 H         158.2256   44.5986   46.6262 H        16      M_A    0.0000
    118 H         156.9763   44.6059   44.7082 H        16      M_A    0.0000
    119 H         156.0001   45.7679   45.6493 H        16      M_A    0.0000
    120 C         154.3727   44.2098   44.4579 C.3      17      M_A    0.0000
    121 C         152.9580   44.5352   44.9206 C.3      17      M_A    0.0000
    122 O         152.0374   43.7480   44.1664 O.3      17      M_A    0.0000
    123 H         154.3518   43.3950   43.7253 H        17      M_A    0.0000
    124 H         154.7991   45.0903   43.9641 H        17      M_A    0.0000
    125 H         152.7770   45.6035   44.7362 H        17      M_A    0.0000
    126 H         152.8322   44.3364   45.9934 H        17      M_A    0.0000
    127 C         150.8004   44.4152   44.0353 C.3      18      M_A    0.0000
    128 C         149.6348   43.4566   43.8257 C.3      18      M_A    0.0000
    129 O         148.6958   44.0646   42.9400 O.3      18      M_A    0.0000
    130 H         150.8641   45.1199   43.1984 H        18      M_A    0.0000
    131 H         150.6259   44.9968   44.9475 H        18      M_A    0.0000
    132 H         149.1651   43.2736   44.8023 H        18      M_A    0.0000
    133 H         149.9748   42.4974   43.4128 H        18      M_A    0.0000
    134 C         147.4898   44.3552   43.6136 C.3      19      M_A    0.0000
    135 C         146.2580   43.9340   42.8219 C.3      19      M_A    0.0000
    136 O         145.4991   45.0992   42.5023 O.3      19      M_A    0.0000
    137 H         147.4521   45.4296   43.8264 H        19      M_A    0.0000
    138 H         147.4967   43.8260   44.5732 H        19      M_A    0.0000
    139 H         145.6622   43.2598   43.4530 H        19      M_A    0.0000
    140 H         146.5361   43.4021   41.9022 H        19      M_A    0.0000
    141 C         144.1301   44.7823   42.3685 C.3      20      M_A    0.0000
    142 C         143.8716   43.7333   41.2942 C.3      20      M_A    0.0000
    143 O         142.7850   44.1707   40.4796 O.3      20      M_A    0.0000
    144 H         143.5740   45.6991   42.1419 H        20      M_A    0.0000
    145 H         143.7698   44.4043   43.3320 H        20      M_A    0.0000
    146 H         143.6092   42.7908   41.7952 H        20      M_A    0.0000
    147 H         144.7631   43.5669   40.6748 H        20      M_A    0.0000
    148 C         141.8451   43.1326   40.3012 C.3      21      M_A    0.0000
    149 C         141.0906   43.2429   38.9822 C.3      21      M_A    0.0000
    150 O         139.7364   42.8472   39.1952 O.3      21      M_A    0.0000
    151 H         141.1407   43.1436   41.1407 H        21      M_A    0.0000
    152 H         142.3804   42.1768   40.3286 H        21      M_A    0.0000
    153 H         141.5693   42.5678   38.2590 H        21      M_A    0.0000
    154 H         141.1255   44.2664   38.5856 H        21      M_A    0.0000
    155 C         139.2314   42.1671   38.0660 C.3      22      M_A    0.0000
    156 C         138.1314   42.9451   37.3545 C.3      22      M_A    0.0000
    157 O         137.0220   42.0744   37.1377 O.3      22      M_A    0.0000
    158 H         138.8566   41.1864   38.3806 H        22      M_A    0.0000
    159 H         140.0594   41.9987   37.3683 H        22      M_A    0.0000
    160 H         138.5295   43.2926   36.3907 H        22      M_A    0.0000
    161 H         137.8155   43.8183   37.9408 H        22      M_A    0.0000
    162 C         136.3097   42.4522   35.9790 C.3      23      M_A    0.0000
    163 C         136.1872   43.9636   35.8309 C.3      23      M_A    0.0000
    164 O         134.9567   44.2606   35.1725 O.3      23      M_A    0.0000
    165 H         135.3145   41.9943   36.0092 H        23      M_A    0.0000
    166 H         136.8354   42.0484   35.1063 H        23      M_A    0.0000
    167 H         137.0324   44.3154   35.2227 H        23      M_A    0.0000
    168 H         136.2223   44.4655   36.8071 H        23      M_A    0.0000
    169 C         134.9465   45.5947   34.7111 C.3      24      M_A    0.0000
    170 C         133.5372   46.1533   34.5589 C.3      24      M_A    0.0000
    171 O         133.5935   47.3198   33.7392 O.3      24      M_A    0.0000
    172 H         135.4768   45.6430   33.7532 H        24      M_A    0.0000
    173 H         135.5000   46.2102   35.4293 H        24      M_A    0.0000
    174 H         133.1653   46.4156   35.5593 H        24      M_A    0.0000
    175 H         132.8592   45.4130   34.1136 H        24      M_A    0.0000
    176 C         132.3735   48.0278   33.7935 C.3      25      M_A    0.0000
    177 C         132.2234   49.0289   32.6549 C.3      25      M_A    0.0000
    178 O         131.1534   49.9198   32.9669 O.3      25      M_A    0.0000
    179 H         132.3040   48.5416   34.7591 H        25      M_A    0.0000
    180 H         131.5535   47.3025   33.7429 H        25      M_A    0.0000
    181 H         131.9902   48.4691   31.7382 H        25      M_A    0.0000
    182 H         133.1505   49.5956   32.4956 H        25      M_A    0.0000
    183 C         130.7528   50.6399   31.8208 C.3      26      M_A    0.0000
    184 C         129.3058   51.1107   31.8983 C.3      26      M_A    0.0000
    185 O         128.5923   50.5823   30.7814 O.3      26      M_A    0.0000
    186 H         130.8971   50.0086   30.9366 H        26      M_A    0.0000
    187 H         131.4080   51.5122   31.7173 H        26      M_A    0.0000
    188 H         129.3030   52.2091   31.8596 H        26      M_A    0.0000
    189 H         128.8302   50.7896   32.8347 H        26      M_A    0.0000
    190 C         127.2323   50.3864   31.1049 C.3      27      M_A    0.0000
    191 C         126.2948   51.2012   30.2225 C.3      27      M_A    0.0000
    192 O         125.4505   51.9910   31.0586 O.3      27      M_A    0.0000
    193 H         127.0775   50.6445   32.1587 H        27      M_A    0.0000
    194 H         127.0012   49.3219   30.9856 H        27      M_A    0.0000
    195 H         125.6883   50.5000   29.6322 H        27      M_A    0.0000
    196 H         126.8548   51.8486   29.5344 H        27      M_A    0.0000
    197 C         124.2230   52.2612   30.4160 C.3      28      M_A    0.0000
    198 C         124.2726   53.5204   29.5596 C.3      28      M_A    0.0000
    199 O         122.9396   53.9838   29.3497 O.3      28      M_A    0.0000
    200 H         123.4375   52.3520   31.1749 H        28      M_A    0.0000
    201 H         123.9733   51.4049   29.7794 H        28      M_A    0.0000
    202 H         124.7348   53.2592   28.5972 H        28      M_A    0.0000
    203 H         124.8732   54.3060   30.0374 H        28      M_A    0.0000
    204 C         122.0653   52.9005   29.1154 C.3      29      M_A    0.0000
    205 C         121.1062   53.1584   27.9600 C.3      29      M_A    0.0000
    206 O         119.9443   52.3502   28.1408 O.3      29      M_A    0.0000
    207 H         121.5032   52.6932   30.0331 H        29      M_A    0.0000
    208 H         122.6696   52.0150   28.8883 H        29      M_A    0.0000
    209 H         121.6154   52.8798   27.0267 H        29      M_A    0.0000
    210 H         120.8226   54.2179   27.9042 H        29      M_A    0.0000
    211 C         119.2733   52.1588   26.9137 C.3      30      M_A    0.0000
    212 C         118.2630   51.0196   26.9675 C.3      30      M_A    0.0000
    213 O         118.4937   50.1507   25.8596 O.3      30      M_A    0.0000
    214 H         120.0149   51.9684   26.1295 H        30      M_A    0.0000
    215 H         118.7515   53.0883   26.6595 H        30      M_A    0.0000
    216 H         117.2560   51.4546   26.8997 H        30      M_A    0.0000
    217 H         118.3421   50.4587   27.9084 H        30      M_A    0.0000
    218 C         117.2821   49.5831   25.4094 C.3      31      M_A    0.0000
    219 C         117.4030   48.0920   25.1207 C.3      31      M_A    0.0000
    220 O         116.6749   47.7960   23.9298 O.3      31      M_A    0.0000
    221 H         116.9532   50.1159   24.5099 H        31      M_A    0.0000
    222 H         116.5224   49.7373   26.1840 H        31      M_A    0.0000
    223 H         116.9709   47.5449   25.9703 H        31      M_A    0.0000
    224 H         118.4527   47.7907   25.0045 H        31      M_A    0.0000
    225 C         116.4704   46.4051   23.8022 C.3      32      M_A    0.0000
    226 C         116.7133   45.9028   22.3845 C.3      32      M_A    0.0000
    227 O         115.4675   45.4882   21.8262 O.3      32      M_A    0.0000
    228 H         115.4481   46.1664   24.1169 H        32      M_A    0.0000
    229 H         117.1571   45.8933   24.4859 H        32      M_A    0.0000
    230 H         117.4025   45.0484   22.4397 H        32      M_A    0.0000
    231 H         117.1667   46.6813   21.7563 H        32      M_A    0.0000
    232 C         115.6665   44.4928   20.8452 C.3      33      M_A    0.0000
    233 C         116.2421   45.0510   19.5496 C.3      33      M_A    0.0000
    234 O         115.1917   45.1555   18.5897 O.3      33      M_A    0.0000
    235 H         114.7115   43.9923   20.6486 H        33      M_A    0.0000
    236 H         116.3570   43.7447   21.2507 H        33      M_A    0.0000
    237 H         117.0107   44.3524   19.1901 H        33      M_A    0.0000
    238 H         116.7058   46.0338   19.7085 H        33      M_A    0.0000
    239 C         114.7467   46.4906   18.4797 C.3      34      M_A    0.0000
    240 C         113.8050   46.7012   17.3007 C.3      34      M_A    0.0000
    241 O         114.0056   48.0159   16.7840 O.3      34      M_A    0.0000
    242 H         115.6182   47.1488   18.3885 H        34      M_A    0.0000
    243 H         114.2251   46.7558   19.4063 H        34      M_A    0.0000
    244 H         112.7738   46.5950   17.6659 H        34      M_A    0.0000
    245 H         113.9781   45.9566   16.5123 H        34      M_A    0.0000
    246 C         112.7880   48.5635   16.3255 C.3      35      M_A    0.0000
    247 C         111.9673   47.5717   15.5105 C.3      35      M_A    0.0000
    248 O         110.9106   48.2769   14.8609 O.3      35      M_A    0.0000
    249 H         113.0032   49.4562   15.7273 H        35      M_A    0.0000
    250 H         112.2043   48.8799   17.1973 H        35      M_A    0.0000
    251 H         111.5509   46.8256   16.2018 H        35      M_A    0.0000
    252 H         112.5880   47.0550   14.7662 H        35      M_A    0.0000
    253 C         110.9220   49.6405   15.2259 C.3      36      M_A    0.0000
    254 C         109.5234   50.1991   15.4564 C.3      36      M_A    0.0000
    255 O         109.4842   51.5444   14.9827 O.3      36      M_A    0.0000
    256 H         111.4325   50.2131   14.4432 H        36      M_A    0.0000
    257 H         111.5052   49.7440   16.1479 H        36      M_A    0.0000
    258 H         109.3215   50.1757   16.5365 H        36      M_A    0.0000
    259 H         108.7622   49.5969   14.9424 H        36      M_A    0.0000
    260 C         108.1507   51.9762   14.8150 C.3      37      M_A    0.0000
    261 C         108.0527   53.4494   14.4389 C.3      37      M_A    0.0000
    262 O         107.1085   54.0803   15.3028 O.3      37      M_A    0.0000
    263 H         107.5968   51.7858   15.7413 H        37      M_A    0.0000
    264 H         107.6920   51.3733   14.0231 H        37      M_A    0.0000
    265 H         107.7084   53.5123   13.3971 H        37      M_A    0.0000
    266 H         109.0277   53.9485   14.5187 H        37      M_A    0.0000
    267 C         106.7291   55.3406   14.7925 C.3      38      M_A    0.0000
    268 C         107.5717   56.4796   15.3529 C.3      38      M_A    0.0000
    269 O         106.8471   57.6999   15.2062 O.3      38      M_A    0.0000
    270 H         105.6696   55.5098   15.0163 H        38      M_A    0.0000
    271 H         106.8392   55.3166   13.7025 H        38      M_A    0.0000
    272 H         108.5063   56.5267   14.7766 H        38      M_A    0.0000
    273 H         107.8176   56.3128   16.4102 H        38      M_A    0.0000
    274 C         105.8114   57.7837   16.1618 C.3      39      M_A    0.0000
    275 C         104.6827   58.7096   15.7258 C.3      39      M_A    0.0000
    276 O         104.9550   60.0233   16.2115 O.3      39      M_A    0.0000
    277 H         106.2335   58.1259   17.1135 H        39      M_A    0.0000
    278 H         105.4080   56.7771   16.3195 H        39      M_A    0.0000
    279 H         103.7468   58.3345   16.1632 H        39      M_A    0.0000
    280 H         104.5788   58.7267   14.6326 H        39      M_A    0.0000
    281 C         104.4414   60.9983   15.3294 C.3      40      M_A    0.0000
    282 C         104.6284   62.4182   15.8492 C.3      40      M_A    0.0000
    283 O         103.5963   63.2426   15.3097 O.3      40      M_A    0.0000
    284 H         103.3779   60.7966   15.1577 H        40      M_A    0.0000
    285 H         104.9584   60.8979   14.3684 H        40      M_A    0.0000
    286 H         105.6106   62.7775   15.5114 H        40      M_A    0.0000
    287 H         104.5999   62.4496   16.9466 H        40      M_A    0.0000
    288 C         103.5270   64.4720   16.0000 C.3      41      M_A    0.0000
    289 C         102.1874   65.1743   15.8170 C.3      41      M_A    0.0000
    290 O         102.3025   66.5122   16.2994 O.3      41      M_A    0.0000
    291 H         104.3420   65.1188   15.6558 H        41      M_A    0.0000
    292 H         103.6857   64.2759   17.0665 H        41      M_A    0.0000
    293 H         101.4342   64.6281   16.4021 H        41      M_A    0.0000
    294 H         101.8791   65.1796   14.7629 H        41      M_A    0.0000
    295 C         102.4008   66.5286   17.7074 C.3      42      M_A    0.0000
    296 C         101.8745   67.8213   18.3185 C.3      42      M_A    0.0000
    297 O         102.9366   68.7732   18.3603 O.3      42      M_A    0.0000
    298 H         103.4482   66.3761   17.9919 H        42      M_A    0.0000
    299 H         101.8228   65.6851   18.1015 H        42      M_A    0.0000
    300 H         101.5291   67.5996   19.3380 H        42      M_A    0.0000
    301 H         101.0317   68.2231   17.7403 H        42      M_A    0.0000
    302 C         102.5780   69.8871   19.1499 C.3      43      M_A    0.0000
    303 C         101.2574   70.5126   18.7186 C.3      43      M_A    0.0000
    304 O         101.5177   71.8118   18.1894 O.3      43      M_A    0.0000
    305 H         103.3815   70.6307   19.1003 H        43      M_A    0.0000
    306 H         102.4943   69.5566   20.1914 H        43      M_A    0.0000
    307 H         100.6126   70.5911   19.6052 H        43      M_A    0.0000
    308 H         100.7487   69.8949   17.9664 H        43      M_A    0.0000
    309 C         100.5086   72.7200   18.5760 C.3      44      M_A    0.0000
    310 C         100.5944   74.0463   17.8311 C.3      44      M_A    0.0000
    311 O         100.8102   75.0905   18.7792 O.3      44      M_A    0.0000
    312 H         100.5784   72.8892   19.6566 H        44      M_A    0.0000
    313 H          99.5356   72.2581   18.3737 H        44      M_A    0.0000
    314 H          99.6406   74.2053   17.3086 H        44      M_A    0.0000
    315 H         101.4050   74.0374   17.0902 H        44      M_A    0.0000
    316 C          99.6484   75.3136   19.5494 C.3      45      M_A    0.0000
    317 C          98.9862   76.6506   19.2407 C.3      45      M_A    0.0000
    318 O          99.4821   77.6284   20.1538 O.3      45      M_A    0.0000
    319 H          99.9112   75.2593   20.6120 H        45      M_A    0.0000
    320 H          98.9381   74.5056   19.3407 H        45      M_A    0.0000
    321 H          97.9015   76.5312   19.3716 H        45      M_A    0.0000
    322 H          99.1840   76.9660   18.2075 H        45      M_A    0.0000
    323 C          99.4517   78.9147   19.5731 C.3      46      M_A    0.0000
    324 C         100.1803   79.9563   20.4132 C.3      46      M_A    0.0000
    325 O          99.5835   81.2312   20.1799 O.3      46      M_A    0.0000
    326 H          98.4075   79.2128   19.4251 H        46      M_A    0.0000
    327 H          99.9242   78.8567   18.5860 H        46      M_A    0.0000
    328 H         101.2331   79.9717   20.0980 H        46      M_A    0.0000
    329 H         100.1360   79.7102   21.4825 H        46      M_A    0.0000
    330 C          99.5994   82.0127   21.3553 C.3      47      M_A    0.0000
    331 C          99.5778   83.5086   21.0671 C.3      47      M_A    0.0000
    332 O         100.1987   84.1931   22.1542 O.3      47      M_A    0.0000
    333 H         100.4888   81.7543   21.9413 H        47      M_A    0.0000
    334 H          98.7193   81.7506   21.9534 H        47      M_A    0.0000
    335 H          98.5284   83.8224   20.9765 H        47      M_A    0.0000
    336 H         100.0980   83.7428   20.1286 H        47      M_A    0.0000
    337 C          99.3295   84.2589   23.2645 C.3      48      M_A    0.0000
    338 C          98.9997   85.6904   23.6688 C.3      48      M_A    0.0000
    339 O          99.8941   86.0906   24.7059 O.3      48      M_A    0.0000
    340 H          99.7870   83.7255   24.1055 H        48      M_A    0.0000
    341 H          98.4014   83.7373   23.0050 H        48      M_A    0.0000
    342 H          97.9646   85.7097   24.0380 H        48      M_A    0.0000
    343 H          99.0823   86.3764   22.8152 H        48      M_A    0.0000
    344 C          99.3272   87.1235   25.4833 C.3      49      M_A    0.0000
    345 C          98.9204   88.3317   24.6488 C.3      49      M_A    0.0000
    346 O          99.7241   89.4457   25.0345 O.3      49      M_A    0.0000
    347 H         100.0460   87.4227   26.2545 H        49      M_A    0.0000
    348 H          98.4416   86.7244   25.9907 H        49      M_A    0.0000
    349 H          97.8615   88.5447   24.8524 H        49      M_A    0.0000
    350 H          99.0403   88.1350   23.5750 H        49      M_A    0.0000
    351 C          99.7779   90.4046   24.0000 C.3      50      M_A    0.0000
    352 C         100.7257   91.5555   24.3139 C.3      50      M_A    0.0000
    353 O          99.9532   92.6964   24.6847 O.3      50      M_A    0.0000
    354 H          98.7672   90.7874   23.8179 H        50      M_A    0.0000
    355 H         100.1138   89.9037   23.0851 H        50      M_A    0.0000
    356 H         101.3068   91.7746   23.4070 H        50      M_A    0.0000
    357 H         101.4205   91.2925   25.1227 H        50      M_A    0.0000
    358 C          99.2792   93.2286   23.5644 C.3      51      M_A    0.0000
    359 C          99.4347   94.7398   23.4480 C.3      51      M_A    0.0000
    360 O          98.3340   95.3651   24.1062 O.3      51      M_A    0.0000
    361 H          98.2180   92.9626   23.6293 H        51      M_A    0.0000
    362 H          99.6860   92.7564   22.6631 H        51      M_A    0.0000
    363 H          99.4309   95.0009   22.3804 H        51      M_A    0.0000
    364 H         100.3804   95.0800   23.8908 H        51      M_A    0.0000
    365 C          98.5995   96.7327   24.3335 C.3      52      M_A    0.0000
    366 C          98.1195   97.2056   25.7001 C.3      52      M_A    0.0000
    367 O          97.6501   98.5477   25.5809 O.3      52      M_A    0.0000
    368 H          98.1241   97.3230   23.5419 H        52      M_A    0.0000
    369 H          99.6818   96.8888   24.2606 H        52      M_A    0.0000
    370 H          98.9722   97.1665   26.3924 H        52      M_A    0.0000
    371 H          97.3201   96.5605   26.0886 H        52      M_A    0.0000
    372 C          96.5955   98.7902   26.4874 C.3      53      M_A    0.0000
    373 C          96.0075  100.1886   26.3447 C.3      53      M_A    0.0000
    374 O          96.0888  100.8501   27.6063 O.3      53      M_A    0.0000
    375 H          96.9631   98.6382   27.5085 H        53      M_A    0.0000
    376 H          95.8082   98.0504   26.3036 H        53      M_A    0.0000
    377 H          94.9559  100.0861   26.0420 H        53      M_A    0.0000
    378 H          96.5394  100.7702   25.5799 H        53      M_A    0.0000
    379 C          95.2678  101.9983   27.6219 C.3      54      M_A    0.0000
    380 C          95.4581  102.8738   26.3895 C.3      54      M_A    0.0000
    381 O          95.3600  104.2424   26.7810 O.3      54      M_A    0.0000
    382 H          95.4801  102.5741   28.5299 H        54      M_A    0.0000
    383 H          94.2228  101.6722   27.6714 H        54      M_A    0.0000
    384 H          94.6609  102.6306   25.6731 H        54      M_A    0.0000
    385 H          96.4296  102.6876   25.9125 H        54      M_A    0.0000
    386 C          96.0000  105.0780   25.8403 C.3      55      M_A    0.0000
    387 C          95.8828  106.5560   26.1912 C.3      55      M_A    0.0000
    388 O          94.7020  107.0782   25.5838 O.3      55      M_A    0.0000
    389 H          95.5711  104.8905   24.8493 H        55      M_A    0.0000
    390 H          97.0599  104.8022   25.8017 H        55      M_A    0.0000
    391 H          96.7684  107.0713   25.7936 H        55      M_A    0.0000
    392 H          95.8453  106.7074   27.2783 H        55      M_A    0.0000
    393 C          94.8369  108.4616   25.3379 C.3      56      M_A    0.0000
    394 C          94.5362  109.3094   26.5676 C.3      56      M_A    0.0000
    395 O          93.4234  110.1548   26.2796 O.3      56      M_A    0.0000
    396 H          94.1707  108.7423   24.5142 H        56      M_A    0.0000
    397 H          95.8659  108.6536   25.0137 H        56      M_A    0.0000
    398 H          95.4240  109.9194   26.7856 H        56      M_A    0.0000
    399 H          94.3159  108.6824   27.4419 H        56      M_A    0.0000
    400 C          92.6125  110.3199   27.4232 C.3      57      M_A    0.0000
    401 C          92.8006  111.6789   28.0859 C.3      57      M_A    0.0000
    402 O          93.4373  111.4881   29.3485 O.3      57      M_A    0.0000
    403 H          92.8370  109.5184   28.1362 H        57      M_A    0.0000
    404 H          91.5651  110.2115   27.1197 H        57      M_A    0.0000
    405 H          91.8075  112.1271   28.2306 H        57      M_A    0.0000
    406 H          93.4023  112.3502   27.4587 H        57      M_A    0.0000
    407 C          93.9894  112.6997   29.8175 C.3      58      M_A    0.0000
    408 C          95.2979  112.4967   30.5711 C.3      58      M_A    0.0000
    409 O          95.3806  113.4669   31.6139 O.3      58      M_A    0.0000
    410 H          93.2563  113.1977   30.4622 H        58      M_A    0.0000
    411 H          94.1704  113.3508   28.9548 H        58      M_A    0.0000
    412 H          96.1248  112.6378   29.8609 H        58      M_A    0.0000
    413 H          95.3641  111.4847   30.9926 H        58      M_A    0.0000
    414 C          96.0000  114.6474   31.1496 C.3      59      M_A    0.0000
    415 C          96.7494  115.3897   32.2491 C.3      59      M_A    0.0000
    416 O          95.9092  116.4249   32.7570 O.3      59      M_A    0.0000
    417 H          95.2370  115.2984   30.7077 H        59      M_A    0.0000
    418 H          96.7054  114.3755   30.3563 H        59      M_A    0.0000
    419 H          97.6567  115.8256   31.8077 H        59      M_A    0.0000
    420 H          97.0434  114.7113   33.0612 H        59      M_A    0.0000
    421 C          96.0889  116.5761   34.1489 C.3      60      M_A    0.0000
    422 C          96.9338  117.7933   34.5039 C.3      60      M_A    0.0000
    423 O          97.6954  117.4964   35.6734 O.3      60      M_A    0.0000
    424 H          96.5519  115.6664   34.5479 H        60      M_A    0.0000
    425 H          95.1015  116.6780   34.6132 H        60      M_A    0.0000
    426 H          96.2535  118.6334   34.7025 H        60      M_A    0.0000
    427 H          97.6037  118.0698   33.6787 H        60      M_A    0.0000
    428 C          97.3572  116.2228   36.1795 C.3      61      M_A    0.0000
    429 C          98.0803  115.8961   37.4802 C.3      61      M_A    0.0000
    430 O          98.6919  114.6132   37.3539 O.3      61      M_A    0.0000
    431 H          97.5869  115.4667   35.4201 H        61      M_A    0.0000
    432 H          96.2758  116.1997   36.3556 H        61      M_A    0.0000
    433 H          97.3356  115.8787   38.2883 H        61      M_A    0.0000
    434 H          98.8397  116.6533   37.7169 H        61      M_A    0.0000
    435 C          99.4076  114.2837   38.5252 C.3      62      M_A    0.0000
    436 C         100.3885  115.3730   38.9408 C.3      62      M_A    0.0000
    437 O         100.8800  115.0723   40.2461 O.3      62      M_A    0.0000
    438 H          99.9395  113.3395   38.3623 H        62      M_A    0.0000
    439 H          98.6861  114.1239   39.3344 H        62      M_A    0.0000
    440 H          99.8482  116.3300   38.9547 H        62      M_A    0.0000
    441 H         101.2243  115.4503   38.2326 H        62      M_A    0.0000
    442 C         101.5171  116.1980   40.8114 C.3      63      M_A    0.0000
    443 C         102.5297  115.8225   41.8861 C.3      63      M_A    0.0000
    444 O         102.8806  116.9979   42.6149 O.3      63      M_A    0.0000
    445 H         100.7544  116.8653   41.2285 H        63      M_A    0.0000
    446 H         102.0308  116.7402   40.0094 H        63      M_A    0.0000
    447 H         103.4184  115.4111   41.3873 H        63      M_A    0.0000
    448 H         102.1255  115.0631   42.5689 H        63      M_A    0.0000
    449 C         103.1856  116.6813   43.9563 C.3      64      M_A    0.0000
    450 C         104.2291  117.6144   44.5578 C.3      64      M_A    0.0000
    451 O         105.3294  116.8326   45.0206 O.3      64      M_A    0.0000
    452 H         103.5345  115.6436   44.0056 H        64      M_A    0.0000
    453 H         102.2628  116.7503   44.5434 H        64      M_A    0.0000
    454 H         103.7652  118.1451   45.4011 H        64      M_A    0.0000
    455 H         104.5755  118.3539   43.8235 H        64      M_A    0.0000
    456 C         106.3566  117.6624   45.5197 C.3      65      M_A    0.0000
    457 C         107.6566  116.9062   45.7639 C.3      65      M_A    0.0000
    458 O         107.9915  117.0069   47.1472 O.3      65      M_A    0.0000
    459 H         106.0135  118.1324   46.4484 H        65      M_A    0.0000
    460 H         106.5380  118.4600   44.7904 H        65      M_A    0.0000
    461 H         108.4418  117.3734   45.1530 H        65      M_A    0.0000
    462 H         107.5660  115.8507   45.4746 H        65      M_A    0.0000
    463 C         109.2465  116.4128   47.4017 C.3      66      M_A    0.0000
    464 C         109.2059  115.4275   48.5631 C.3      66      M_A    0.0000
    465 O         110.1628  115.8330   49.5408 O.3      66      M_A    0.0000
    466 H         109.9789  117.2029   47.6029 H        66      M_A    0.0000
    467 H         109.5664  115.8854   46.4959 H        66      M_A    0.0000
    468 H         109.4652  114.4327   48.1745 H        66      M_A    0.0000
    469 H         108.2052  115.3803   49.0130 H        66      M_A    0.0000
    470 C         109.9557  115.1467   50.7569 C.3      67      M_A    0.0000
    471 C         108.6735  115.5726   51.4612 C.3      67      M_A    0.0000
    472 O         108.5410  114.8189   52.6655 O.3      67      M_A    0.0000
    473 H         110.8189  115.3149   51.4108 H        67      M_A    0.0000
    474 H         109.9059  114.0735   50.5409 H        67      M_A    0.0000
    475 H         107.8297  115.3589   50.7902 H        67      M_A    0.0000
    476 H         108.6797  116.6470   51.6886 H        67      M_A    0.0000
    477 C         109.7709  114.2235   53.0199 C.3      68      M_A    0.0000
    478 C         109.8731  113.9286   54.5112 C.3      68      M_A    0.0000
    479 O         110.8885  114.7586   55.0731 O.3      68      M_A    0.0000
    480 H         110.5878  114.8848   52.7094 H        68      M_A    0.0000
    481 H         109.8714  113.2858   52.4618 H        68      M_A    0.0000
    482 H         110.1448  112.8704   54.6308 H        68      M_A    0.0000
    483 H         108.9167  114.1067   55.0208 H        68      M_A    0.0000
    484 C         110.9688  114.5729   56.4702 C.3      69      M_A    0.0000
    485 C         109.7146  115.0400   57.1984 C.3      69      M_A    0.0000
    486 O         109.9869  115.0810   58.5984 O.3      69      M_A    0.0000
    487 H         111.8466  115.1083   56.8496 H        69      M_A    0.0000
    488 H         111.1198  113.5053   56.6662 H        69      M_A    0.0000
    489 H         108.9129  114.3168   56.9932 H        69      M_A    0.0000
    490 H         109.3941  116.0304   56.8482 H        69      M_A    0.0000
    491 C         108.9762  115.7899   59.2831 C.3      70      M_A    0.0000
    492 C         108.2020  114.9135   60.2597 C.3      70      M_A    0.0000
    493 O         106.9263  115.5075   60.4954 O.3      70      M_A    0.0000
    494 H         108.2926  116.2312   58.5489 H        70      M_A    0.0000
    495 H         109.4471  116.6113   59.8349 H        70      M_A    0.0000
    496 H         108.7721  114.8644   61.1982 H        70      M_A    0.0000
    497 H         108.0764  113.8945   59.8699 H        70      M_A    0.0000
    498 C         106.6325  115.5282   61.8759 C.3      71      M_A    0.0000
    499 C         105.2720  114.9218   62.1966 C.3      71      M_A    0.0000
    500 O         104.8241  115.4391   63.4486 O.3      71      M_A    0.0000
    501 H         106.6775  116.5634   62.2328 H        71      M_A    0.0000
    502 H         107.4098  114.9613   62.4006 H        71      M_A    0.0000
    503 H         105.3928  113.8314   62.2629 H        71      M_A    0.0000
    504 H         104.5380  115.1481   61.4117 H        71      M_A    0.0000
    505 C         104.6901  116.8431   63.3896 C.3      72      M_A    0.0000
    506 C         104.4685  117.4706   64.7603 C.3      72      M_A    0.0000
    507 O         103.1628  118.0448   64.7949 O.3      72      M_A    0.0000
    508 H         103.8578  117.0925   62.7217 H        72      M_A    0.0000
    509 H         105.6048  117.2568   62.9502 H        72      M_A    0.0000
    510 H         105.2265  118.2536   64.9025 H        72      M_A    0.0000
    511 H         104.5743  116.7278   65.5622 H        72      M_A    0.0000
    512 C         102.5851  117.8948   66.0742 C.3      73      M_A    0.0000
    513 C         102.6041  119.1861   66.8828 C.3      73      M_A    0.0000
    514 O         102.6246  118.8564   68.2708 O.3      73      M_A    0.0000
    515 H         103.1184  117.1040   66.6139 H        73      M_A    0.0000
    516 H         101.5470  117.5682   65.9456 H        73      M_A    0.0000
    517 H         101.6912  119.7499   66.6446 H        73      M_A    0.0000
    518 H         103.4761  119.8039   66.6298 H        73      M_A    0.0000
    519 C         101.8156  117.7287   68.5283 C.3      74      M_A    0.0000
    520 C         100.5465  118.0784   69.2956 C.3      74      M_A    0.0000
    521 O         100.5180  117.3189   70.5031 O.3      74      M_A    0.0000
    522 H         102.4026  116.9908   69.0868 H        74      M_A    0.0000
    523 H         101.5405  117.2775   67.5683 H        74      M_A    0.0000
    524 H          99.6850  117.8148   68.6662 H        74      M_A    0.0000
    525 H         100.5004  119.1515   69.5248 H        74      M_A    0.0000
    526 C          99.2047  117.2447   71.0153 C.3      75      M_A    0.0000
    527 C          98.7207  118.5715   71.5869 C.3      75      M_A    0.0000
    528 O          97.4771  118.3566   72.2525 O.3      75      M_A    0.0000
    529 H          99.1677  116.4662   71.7859 H        75      M_A    0.0000
    530 H          98.5361  116.9400   70.2023 H        75      M_A    0.0000
    531 H          98.5827  119.2718   70.7512 H        75      M_A    0.0000
    532 H          99.4530  118.9969   72.2861 H        75      M_A    0.0000
    533 C          97.6791  117.7140   73.4931 C.3      76      M_A    0.0000
    534 C          96.4852  116.8684   73.9185 C.3      76      M_A    0.0000
    535 O          95.6134  117.6735   74.7108 O.3      76      M_A    0.0000
    536 H          97.8947  118.4722   74.2545 H        76      M_A    0.0000
    537 H          98.5613  117.0697   73.4060 H        76      M_A    0.0000
    538 H          96.8611  116.0246   74.5141 H        76      M_A    0.0000
    539 H          95.9447  116.4727   73.0483 H        76      M_A    0.0000
    540 C          94.3818  117.0169   74.9221 C.3      77      M_A    0.0000
    541 C          93.1825  117.8954   74.5885 C.3      77      M_A    0.0000
    542 O          92.5472  118.2838   75.8056 O.3      77      M_A    0.0000
    543 H          94.3295  116.6879   75.9661 H        77      M_A    0.0000
    544 H          94.3571  116.1223   74.2896 H        77      M_A    0.0000
    545 H          92.4881  117.3044   73.9750 H        77      M_A    0.0000
    546 H          93.4842  118.7858   74.0208 H        77      M_A    0.0000
    547 C          92.8307  119.6331   76.1084 C.3      78      M_A    0.0000
    548 C          92.3658  120.0328   77.5032 C.3      78      M_A    0.0000
    549 O          91.3247  121.0005   77.3787 O.3      78      M_A    0.0000
    550 H          92.3571  120.2730   75.3552 H        78      M_A    0.0000
    551 H          93.9143  119.7804   76.0364 H        78      M_A    0.0000
    552 H          93.2225  120.4699   78.0351 H        78      M_A    0.0000
    553 H          92.0056  119.1635   78.0694 H        78      M_A    0.0000
    554 C          90.3049  120.7616   78.3251 C.3      79      M_A    0.0000
    555 C          89.0154  121.5051   78.0002 C.3      79      M_A    0.0000
    556 O          88.0922  121.3092   79.0703 O.3      79      M_A    0.0000
    557 H          90.6673  121.0512   79.3180 H        79      M_A    0.0000
    558 H          90.1018  119.6849   78.3461 H        79      M_A    0.0000
    559 H          88.6061  121.0859   77.0703 H        79      M_A    0.0000
    560 H          89.1982  122.5779   77.8527 H        79      M_A    0.0000
    561 C          86.7625  121.4184   78.6090 C.3      80      M_A    0.0000
    562 C          85.9727  120.1269   78.7809 C.3      80      M_A    0.0000
    563 O          84.9109  120.1096   77.8279 O.3      80      M_A    0.0000
    564 H          86.7761  121.7146   77.5540 H        80      M_A    0.0000
    565 H          86.2685  122.2178   79.1728 H        80      M_A    0.0000
    566 H          85.5620  120.1124   79.8002 H        80      M_A    0.0000
    567 H          86.6134  119.2451   78.6464 H        80      M_A    0.0000
    568 C          85.4037  119.8236   76.5364 C.3      81      M_A    0.0000
    569 C          84.8002  120.7226   75.4645 C.3      81      M_A    0.0000
    570 O          83.5974  120.1215   74.9872 O.3      81      M_A    0.0000
    571 H          85.2015  118.7718   76.3042 H        81      M_A    0.0000
    572 H          86.4912  119.9590   76.5464 H        81      M_A    0.0000
    573 H          85.5270  120.8095   74.6446 H        81      M_A    0.0000
    574 H          84.5892  121.7266   75.8564 H        81      M_A    0.0000
    575 C          82.4928  120.5273   75.7668 C.3      82      M_A    0.0000
    576 C          81.4611  121.3087   74.9628 C.3      82      M_A    0.0000
    577 O          80.8990  122.3190   75.7989 O.3      82      M_A    0.0000
    578 H          82.8540  121.1325   76.6061 H        82      M_A    0.0000
    579 H          82.0186  119.6311   76.1826 H        82      M_A    0.0000
    580 H          80.6774  120.6078   74.6427 H        82      M_A    0.0000
    581 H          81.9110  121.7656   74.0712 H        82      M_A    0.0000
    582 C          80.0168  123.1409   75.0648 C.3      83      M_A    0.0000
    583 C          79.7141  124.4566   75.7711 C.3      83      M_A    0.0000
    584 O          78.7653  125.1855   74.9938 O.3      83      M_A    0.0000
    585 H          79.0879  122.5892   74.8809 H        83      M_A    0.0000
    586 H          80.4753  123.3538   74.0925 H        83      M_A    0.0000
    587 H          80.6517  125.0249   75.8481 H        83      M_A    0.0000
    588 H          79.3209  124.2866   76.7824 H        83      M_A    0.0000
    589 C          79.3188  126.4036   74.5439 C.3      84      M_A    0.0000
    590 C          78.2752  127.5035   74.3936 C.3      84      M_A    0.0000
    591 O          77.9972  127.6839   73.0058 O.3      84      M_A    0.0000
    592 H          79.8256  126.2315   73.5876 H        84      M_A    0.0000
    593 H          80.0756  126.7249   75.2685 H        84      M_A    0.0000
    594 H          78.6926  128.4284   74.8158 H        84      M_A    0.0000
    595 H          77.3515  127.2552   74.9332 H        84      M_A    0.0000
    596 C          76.6417  128.0248   72.8082 C.3      85      M_A    0.0000
    597 C          76.4492  129.4981   72.4707 C.3      85      M_A    0.0000
    598 O          75.2416  129.9530   73.0794 O.3      85      M_A    0.0000
    599 H          76.0758  127.7678   73.7109 H        85      M_A    0.0000
    600 H          76.2510  127.4151   71.9857 H        85      M_A    0.0000
    601 H          76.3761  129.5899   71.3779 H        85      M_A    0.0000
    602 H          77.2972  130.1026   72.8193 H        85      M_A    0.0000
    603 C          75.4756  131.1156   73.8451 C.3      86      M_A    0.0000
    604 C          74.3778  131.3759   74.8691 C.3      86      M_A    0.0000
    605 O          73.5611  132.4485   74.4018 O.3      86      M_A    0.0000
    606 H          75.5713  131.9727   73.1688 H        86      M_A    0.0000
    607 H          76.4314  130.9957   74.3676 H        86      M_A    0.0000
    608 H          74.8570  131.6553   75.8179 H        86      M_A    0.0000
    609 H          73.7642  130.4802   75.0344 H        86      M_A    0.0000
    610 C          72.2229  132.2743   74.8159 C.3      87      M_A    0.0000
    611 C          71.3195  133.4224   74.3834 C.3      87      M_A    0.0000
    612 O          70.5065  133.8071   75.4910 O.3      87      M_A    0.0000
    613 H          72.1999  132.1665   75.9062 H        87      M_A    0.0000
    614 H          71.8482  131.3407   74.3813 H        87      M_A    0.0000
    615 H          70.6860  133.0650   73.5594 H        87      M_A    0.0000
    616 H          71.9054  134.2816   74.0304 H        87      M_A    0.0000
    617 C          69.3627  134.5079   75.0514 C.3      88      M_A    0.0000
    618 C          69.0667  135.7399   75.8975 C.3      88      M_A    0.0000
    619 O          67.6533  135.9259   75.9562 O.3      88      M_A    0.0000
    620 H          68.5035  133.8275   75.0625 H        88      M_A    0.0000
    621 H          69.5282  134.8178   74.0134 H        88      M_A    0.0000
    622 H          69.5393  136.6063   75.4138 H        88      M_A    0.0000
    623 H          69.4750  135.6363   76.9117 H        88      M_A    0.0000
    624 C          67.3173  136.8990   76.9220 C.3      89      M_A    0.0000
    625 C          65.9252  136.6919   77.5057 C.3      89      M_A    0.0000
    626 O          65.0606  137.7070   76.9980 O.3      89      M_A    0.0000
    627 H          67.3908  137.8925   76.4654 H        89      M_A    0.0000
    628 H          68.0555  136.8490   77.7305 H        89      M_A    0.0000
    629 H          65.9991  136.7744   78.5991 H        89      M_A    0.0000
    630 H          65.5290  135.6993   77.2530 H        89      M_A    0.0000
    631 C          63.7857  137.1765   76.7051 C.3      90      M_A    0.0000
    632 C          62.7952  138.2423   76.2528 C.3      90      M_A    0.0000
    633 O          61.5853  138.0861   76.9928 O.3      90      M_A    0.0000
    634 H          63.4040  136.6595   77.5928 H        90      M_A    0.0000
    635 H          63.8986  136.4319   75.9091 H        90      M_A    0.0000
    636 H          62.6014  138.0936   75.1812 H        90      M_A    0.0000
    637 H          63.1992  139.2527   76.4011 H        90      M_A    0.0000
    638 C          61.0320  139.3438   77.3164 C.3      91      M_A    0.0000
    639 C          59.7355  139.6259   76.5676 C.3      91      M_A    0.0000
    640 O          59.2300  140.8920   76.9888 O.3      91      M_A    0.0000
    641 H          61.7708  140.1233   77.0982 H        91      M_A    0.0000
    642 H          60.8347  139.3646   78.3942 H        91      M_A    0.0000
    643 H          59.0176  138.8328   76.8195 H        91      M_A    0.0000
    644 H          59.8931  139.6265   75.4807 H        91      M_A    0.0000
    645 C          58.3903  141.4485   76.0000 C.3      92      M_A    0.0000
    646 C          57.6541  142.6911   76.4852 C.3      92      M_A    0.0000
    647 O          56.6171  143.0008   75.5555 O.3      92      M_A    0.0000
    648 H          57.6718  140.6874   75.6750 H        92      M_A    0.0000
    649 H          59.0083  141.7136   75.1347 H        92      M_A    0.0000
    650 H          58.3764  143.5183   76.5307 H        92      M_A    0.0000
    651 H          57.2289  142.5389   77.4863 H        92      M_A    0.0000
    652 C          55.9267  144.1679   75.9480 C.3      93      M_A    0.0000
    653 C          55.9830  145.2667   74.8941 C.3      93      M_A    0.0000
    654 O          55.8818  146.5318   75.5462 O.3      93      M_A    0.0000
    655 H          56.3489  144.5293   76.8926 H        93      M_A    0.0000
    656 H          54.8797  143.9016   76.1319 H        93      M_A    0.0000
    657 H          55.1328  145.1274   74.2117 H        93      M_A    0.0000
    658 H          56.9135  145.2164   74.3129 H        93      M_A    0.0000
    659 C          56.3604  147.5640   74.7106 C.3      94      M_A    0.0000
    660 C          55.8354  148.9367   75.1125 C.3      94      M_A    0.0000
    661 O          55.0538  149.4598   74.0395 O.3      94      M_A    0.0000
    662 H          56.0795  147.3412   73.6750 H        94      M_A    0.0000
    663 H          57.4549  147.5694   74.7647 H        94      M_A    0.0000
    664 H          56.6993  149.5896   75.3003 H        94      M_A    0.0000
    665 H          55.2298  148.8815   76.0270 H        94      M_A    0.0000
    666 C          53.9194  150.1395   74.5332 C.3      95      M_A    0.0000
    667 C          53.9708  151.6390   74.2678 C.3      95      M_A    0.0000
    668 O          53.5490  152.3266   75.4447 O.3      95      M_A    0.0000
    669 H          53.8322  149.9498   75.6091 H        95      M_A    0.0000
    670 H          53.0304  149.7204   74.0483 H        95      M_A    0.0000
    671 H          53.2856  151.8612   73.4377 H        95      M_A    0.0000
    672 H          54.9821  151.9610   73.9860 H        95      M_A    0.0000
    673 C          54.0303  153.6536   75.4473 C.3      96      M_A    0.0000
    674 C          53.1742  154.5880   76.2932 C.3      96      M_A    0.0000
    675 O          52.7302  155.6687   75.4742 O.3      96      M_A    0.0000
    676 H          54.0765  154.0164   74.4141 H        96      M_A    0.0000
    677 H          55.0520  153.6472   75.8437 H        96      M_A    0.0000
    678 H          53.7972  154.9705   77.1138 H        96      M_A    0.0000
    679 H          52.3110  154.0614   76.7218 H        96      M_A    0.0000
    680 C          51.5130  156.1947   75.9583 C.3      97      M_A    0.0000
    681 C          51.4430  157.7126   75.8473 C.3      97      M_A    0.0000
    682 O          50.1905  158.1524   76.3706 O.3      97      M_A    0.0000
    683 H          51.3833  155.8865   77.0020 H        97      M_A    0.0000
    684 H          50.6942  155.7551   75.3774 H        97      M_A    0.0000
    685 H          51.5198  157.9798   74.7840 H        97      M_A    0.0000
    686 H          52.2674  158.1921   76.3918 H        97      M_A    0.0000
    687 C          49.1574  157.2614   76.0082 C.3      98      M_A    0.0000
    688 C          48.1291  157.8990   75.0822 C.3      98      M_A    0.0000
    689 O          46.9468  158.1746   75.8320 O.3      98      M_A    0.0000
    690 H          48.6692  156.8949   76.9184 H        98      M_A    0.0000
    691 H          49.6087  156.4001   75.5029 H        98      M_A    0.0000
    692 H          47.9052  157.1835   74.2785 H        98      M_A    0.0000
    693 H          48.5141  158.8243   74.6333 H        98      M_A    0.0000
    694 C          45.8614  158.4456   74.9711 C.3      99      M_A    0.0000
    695 C          45.9840  159.7969   74.2780 C.3      99      M_A    0.0000
    696 O          44.7824  160.5343   74.4974 O.3      99      M_A    0.0000
    697 H          44.9308  158.4009   75.5483 H        99      M_A    0.0000
    698 H          45.8203  157.6563   74.2120 H        99      M_A    0.0000
    699 H          46.1222  159.6163   73.2027 H        99      M_A    0.0000
    700 H          46.8467  160.3628   74.6541 H        99      M_A    0.0000
    701 C          44.9391  161.8769   74.0904 C.3     100      M_A    0.0000
    702 C          45.9000  162.6532   74.9822 C.3     100      M_A    0.0000
    703 O          45.8424  164.0333   74.6246 O.3     100      M_A    0.0000
    704 H          43.9565  162.3623   74.0823 H       100      M_A    0.0000
    705 H          45.3210  161.8816   73.0632 H       100      M_A    0.0000
    706 H          46.9133  162.2633   74.8109 H       100      M_A    0.0000
    707 H          45.6494  162.5289   76.0442 H       100      M_A    0.0000
    708 C          45.2502  164.1956   73.3536 C.3     101      M_A    0.0000
    709 C          45.0496  165.6592   72.9810 C.3     101      M_A    0.0000
    710 O          43.6965  165.8450   72.5683 O.3     101      M_A    0.0000
    711 H          44.2898  163.6678   73.3395 H       101      M_A    0.0000
    712 H          45.9007  163.7226   72.6092 H       101      M_A    0.0000
    713 H          45.7306  165.8954   72.1512 H       101      M_A    0.0000
    714 H          45.2799  166.3223   73.8256 H       101      M_A    0.0000
    715 C          43.6051  166.8712   71.6033 C.3     102      M_A    0.0000
    716 C          43.0311  168.1632   72.1715 C.3     102      M_A    0.0000
    717 O          41.6536  168.2497   71.8101 O.3     102      M_A    0.0000
    718 H          42.9882  166.5196   70.7686 H       102      M_A    0.0000
    719 H          44.6108  167.0669   71.2145 H       102      M_A    0.0000
    720 H          43.5873  169.0040   71.7338 H       102      M_A    0.0000
    721 H          43.1366  168.2014   73.2640 H       102      M_A    0.0000
    722 C          41.1690  169.5619   72.0000 C.3     103      M_A    0.0000
    723 C          39.8888  169.6021   72.8252 C.3     103      M_A    0.0000
    724 O          38.8263  170.0750   71.9986 O.3     103      M_A    0.0000
    725 H          41.0008  170.0234   71.0203 H       103      M_A    0.0000
    726 H          41.9438  170.1428   72.5129 H       103      M_A    0.0000
    727 H          40.0469  170.2934   73.6648 H       103      M_A    0.0000
    728 H          39.6403  168.6106   73.2268 H       103      M_A    0.0000
    729 C          37.7374  170.5094   72.7848 C.3     104      M_A    0.0000
    730 C          36.5288  170.9073   71.9467 C.3     104      M_A    0.0000
    731 O          36.2994  172.3061   72.1098 O.3     104      M_A    0.0000
    732 H          38.0612  171.3536   73.4041 H       104      M_A    0.0000
    733 H          37.4529  169.6927   73.4579 H       104      M_A    0.0000
    734 H          35.6608  170.3399   72.3106 H       104      M_A    0.0000
    735 H          36.6834  170.6727   70.8850 H       104      M_A    0.0000
    736 C          35.0168  172.6601   71.6383 C.3     105      M_A    0.0000
    737 C          35.0368  173.9024   70.7565 C.3     105      M_A    0.0000
    738 O          34.9070  175.0553   71.5870 O.3     105      M_A    0.0000
    739 H          34.3540  172.8177   72.4968 H       105      M_A    0.0000
    740 H          34.6190  171.8177   71.0611 H       105      M_A    0.0000
    741 H          34.1858  173.8415   70.0637 H       105      M_A    0.0000
    742 H          35.9641  173.9628   70.1712 H       105      M_A    0.0000
    743 C          35.8655  176.0316   71.2394 C.3     106      M_A    0.0000
    744 C          37.2924  175.5851   71.5326 C.3     106      M_A    0.0000
    745 O          38.1769  176.6705   71.2580 O.3     106      M_A    0.0000
    746 H          35.6413  176.9576   71.7810 H       106      M_A    0.0000
    747 H          35.7689  176.2409   70.1681 H       106      M_A    0.0000
    748 H          37.5251  174.7360   70.8748 H       106      M_A    0.0000
    749 H          37.4045  175.2633   72.5767 H       106      M_A    0.0000
    750 C          38.3204  176.8579   69.8663 C.3     107      M_A    0.0000
    751 C          39.0914  175.7269   69.1971 C.3     107      M_A    0.0000
    752 O          39.8248  176.2618   68.0963 O.3     107      M_A    0.0000
    753 H          38.8235  177.8149   69.6870 H       107      M_A    0.0000
    754 H          37.3198  176.9200   69.4236 H       107      M_A    0.0000
    755 H          38.3640  174.9852   68.8383 H       107      M_A    0.0000
    756 H          39.7756  175.2369   69.9026 H       107      M_A    0.0000
    757 C          40.5081  177.4373   68.4756 C.3     108      M_A    0.0000
    758 C          40.6245  178.4430   67.3370 C.3     108      M_A    0.0000
    759 O          41.8852  179.1036   67.4370 O.3     108      M_A    0.0000
    760 H          41.5046  177.1660   68.8424 H       108      M_A    0.0000
    761 H          39.9621  177.8987   69.3063 H       108      M_A    0.0000
    762 H          39.8093  179.1726   67.4429 H       108      M_A    0.0000
    763 H          40.5335  177.9523   66.3588 H       108      M_A    0.0000
    764 C          42.3352  179.5161   66.1642 C.3     109      M_A    0.0000
    765 C          42.2798  181.0278   65.9825 C.3     109      M_A    0.0000
    766 O          41.4708  181.3226   64.8448 O.3     109      M_A    0.0000
    767 H          41.7297  179.0215   65.3962 H       109      M_A    0.0000
    768 H          43.3704  179.1784   66.0404 H       109      M_A    0.0000
    769 H          43.3048  181.3884   65.8175 H       109      M_A    0.0000
    770 H          41.8710  181.5232   66.8734 H       109      M_A    0.0000
    771 C          41.1067  182.6864   64.8307 C.3     110      M_A    0.0000
    772 C          39.9518  182.9767   63.8803 C.3     110      M_A    0.0000
    773 O          40.2606  184.1505   63.1302 O.3     110      M_A    0.0000
    774 H          41.9822  183.2847   64.5541 H       110      M_A    0.0000
    775 H          40.8148  182.9739   65.8471 H       110      M_A    0.0000
    776 H          39.0485  183.1440   64.4837 H       110      M_A    0.0000
    777 H          39.7707  182.1329   63.2011 H       110      M_A    0.0000
    778 C          39.5429  184.1696   61.9148 C.3     111      M_A    0.0000
    779 C          39.5945  185.5260   61.2228 C.3     111      M_A    0.0000
    780 O          38.2659  186.0345   61.1130 O.3     111      M_A    0.0000
    781 H          38.5028  183.8863   62.1123 H       111      M_A    0.0000
    782 H          39.9736  183.4121   61.2502 H       111      M_A    0.0000
    783 H          40.0246  185.3811   60.2218 H       111      M_A    0.0000
    784 H          40.2239  186.2346   61.7776 H       111      M_A    0.0000
    785 C          38.2823  187.4112   60.8014 C.3     112      M_A    0.0000
    786 C          37.6787  187.7121   59.4352 C.3     112      M_A    0.0000
    787 O          38.1602  188.9797   58.9913 O.3     112      M_A    0.0000
    788 H          39.3161  187.7727   60.8448 H       112      M_A    0.0000
    789 H          37.7111  187.9438   61.5702 H       112      M_A    0.0000
    790 H          36.5857  187.7438   59.5458 H       112      M_A    0.0000
    791 H          37.9366  186.9344   58.7038 H       112      M_A    0.0000
    792 C          38.5771  188.9117   57.6443 C.3     113      M_A    0.0000
    793 C          39.3333  190.1573   57.1994 C.3     113      M_A    0.0000
    794 O          38.4576  190.9699   56.4193 O.3     113      M_A    0.0000
    795 H          37.6983  188.7567   57.0082 H       113      M_A    0.0000
    796 H          39.2285  188.0378   57.5306 H       113      M_A    0.0000
    797 H          40.1894  189.8359   56.5896 H       113      M_A    0.0000
    798 H          39.7079  190.7270   58.0604 H       113      M_A    0.0000
    799 C          39.0574  192.2143   56.1287 C.3     114      M_A    0.0000
    800 C          38.0891  193.3817   56.2731 C.3     114      M_A    0.0000
    801 O          38.5276  194.4467   55.4309 O.3     114      M_A    0.0000
    802 H          39.4625  192.1840   55.1108 H       114      M_A    0.0000
    803 H          39.8978  192.3590   56.8170 H       114      M_A    0.0000
    804 H          38.1004  193.7051   57.3234 H       114      M_A    0.0000
    805 H          37.0653  193.0878   56.0057 H       114      M_A    0.0000
    806 C          37.7064  195.5832   55.5945 C.3     115      M_A    0.0000
    807 C          38.4187  196.8803   55.2317 C.3     115      M_A    0.0000
    808 O          38.6091  197.6458   56.4206 O.3     115      M_A    0.0000
    809 H          37.3573  195.6223   56.6326 H       115      M_A    0.0000
    810 H          36.8266  195.4661   54.9517 H       115      M_A    0.0000
    811 H          37.7809  197.4332   54.5278 H       115      M_A    0.0000
    812 H          39.3866  196.6844   54.7512 H       115      M_A    0.0000
    813 C          39.9279  198.1447   56.4874 C.3     116      M_A    0.0000
    814 C          40.9698  197.1079   56.0864 C.3     116      M_A    0.0000
    815 O          42.2661  197.6920   56.2057 O.3     116      M_A    0.0000
    816 H          40.1219  198.4998   57.5059 H       116      M_A    0.0000
    817 H          40.0031  199.0065   55.8146 H       116      M_A    0.0000
    818 H          40.7815  196.8228   55.0418 H       116      M_A    0.0000
    819 H          40.9027  196.2095   56.7145 H       116      M_A    0.0000
    820 C          42.2800  198.9929   55.6578 C.3     117      M_A    0.0000
    821 C          43.0581  199.0718   54.3502 C.3     117      M_A    0.0000
    822 O          43.7266  200.3309   54.2908 O.3     117      M_A    0.0000
    823 H          42.7080  199.6833   56.3934 H       117      M_A    0.0000
    824 H          41.2437  199.2999   55.4768 H       117      M_A    0.0000
    825 H          42.3405  198.9886   53.5218 H       117      M_A    0.0000
    826 H          43.7871  198.2545   54.2684 H       117      M_A    0.0000
    827 C          44.7962  200.2855   53.3708 C.3     118      M_A    0.0000
    828 C          45.8179  201.3919   53.6020 C.3     118      M_A    0.0000
    829 O          45.6323  202.4006   52.6101 O.3     118      M_A    0.0000
    830 H          44.3928  200.3512   52.3539 H       118      M_A    0.0000
    831 H          45.2926  199.3135   53.4697 H       118      M_A    0.0000
    832 H          46.8213  200.9534   53.5079 H       118      M_A    0.0000
    833 H          45.7161  201.8273   54.6051 H       118      M_A    0.0000
    834 C          46.4693  203.5090   52.8623 C.3     119      M_A    0.0000
    835 C          45.8238  204.8335   52.4745 C.3     119      M_A    0.0000
    836 O          46.7311  205.5596   51.6466 O.3     119      M_A    0.0000
    837 H          47.4105  203.3743   52.3171 H       119      M_A    0.0000
    838 H          46.7041  203.5250   53.9326 H       119      M_A    0.0000
    839 H          45.6240  205.3973   53.3966 H       119      M_A    0.0000
    840 H          44.8747  204.6762   51.9449 H       119      M_A    0.0000
    841 C          46.0912  206.6738   51.0621 C.3     120      M_A    0.0000
    842 C          46.9115  207.3024   49.9425 C.3     120      M_A    0.0000
    843 O          46.6209  208.6983   49.8906 O.3     120      M_A    0.0000
    844 H          45.8873  207.4158   51.8424 H       120      M_A    0.0000
    845 H          45.1279  206.3430   50.6576 H       120      M_A    0.0000
    846 H          46.6203  206.8232   48.9972 H       120      M_A    0.0000
    847 H          47.9874  207.1476   50.0994 H       120      M_A    0.0000
    848 C          47.5258  209.3654   49.0370 C.3     121      M_A    0.0000
    849 C          46.8401  209.9988   47.8328 C.3     121      M_A    0.0000
    850 O          47.6619  209.8031   46.6830 O.3     121      M_A    0.0000
    851 H          48.2903  208.6540   48.7046 H       121      M_A    0.0000
    852 H          48.0291  210.1485   49.6153 H       121      M_A    0.0000
    853 H          46.7251  211.0733   48.0331 H       121      M_A    0.0000
    854 H          45.8462  209.5634   47.6634 H       121      M_A    0.0000
    855 C          48.9225  210.4131   46.8604 C.3     122      M_A    0.0000
    856 C          49.3648  211.2139   45.6420 C.3     122      M_A    0.0000
    857 O          50.7290  211.5947   45.8153 O.3     122      M_A    0.0000
    858 H          49.6624  209.6382   47.0913 H       122      M_A    0.0000
    859 H          48.8608  211.0826   47.7258 H       122      M_A    0.0000
    860 H          48.7311  212.1094   45.5752 H       122      M_A    0.0000
    861 H          49.2512  210.6318   44.7177 H       122      M_A    0.0000
    862 C          51.0856  212.6060   44.8974 C.3     123      M_A    0.0000
    863 C          51.6005  213.8662   45.5818 C.3     123      M_A    0.0000
    864 O          51.4315  214.9705   44.6941 O.3     123      M_A    0.0000
    865 H          50.2153  212.8436   44.2752 H       123      M_A    0.0000
    866 H          51.8676  212.2113   44.2389 H       123      M_A    0.0000
    867 H          52.6675  213.7218   45.8021 H       123      M_A    0.0000
    868 H          51.0685  214.0558   46.5237 H       123      M_A    0.0000
    869 C          52.1862  216.0811   45.1296 C.3     124      M_A    0.0000
    870 C          51.4881  217.4083   44.8601 C.3     124      M_A    0.0000
    871 O          52.1616  218.0707   43.7908 O.3     124      M_A    0.0000
    872 H          53.1639  216.0619   44.6347 H       124      M_A    0.0000
    873 H          52.3568  215.9787   46.2072 H       124      M_A    0.0000
    874 H          51.5476  218.0156   45.7742 H       124      M_A    0.0000
    875 H          50.4306  217.2594   44.6039 H       124      M_A    0.0000
    876 C          51.2735  218.9120   43.0863 C.3     125      M_A    0.0000
    877 C          51.9695  219.7248   42.0017 C.3     125      M_A    0.0000
    878 O          51.8795  221.1084   42.3381 O.3     125      M_A    0.0000
    879 H          50.7776  219.5807   43.7990 H       125      M_A    0.0000
    880 H          50.5015  218.2860   42.6247 H       125      M_A    0.0000
    881 H          51.4524  219.5357   41.0504 H       125      M_A    0.0000
    882 H          53.0223  219.4311   41.8950 H       125      M_A    0.0000
    883 C          52.7162  221.8807   41.5037 C.3     126      M_A    0.0000
    884 C          53.6452  222.7978   42.2893 C.3     126      M_A    0.0000
    885 O          54.0181  223.8942   41.4558 O.3     126      M_A    0.0000
    886 H          52.0918  222.4701   40.8227 H       126      M_A    0.0000
    887 H          53.3187  221.1971   40.8949 H       126      M_A    0.0000
    888 H          54.5369  222.2195   42.5696 H       126      M_A    0.0000
    889 H          53.1629  223.1675   43.2041 H       126      M_A    0.0000
    890 C          54.8419  224.7989   42.1597 C.3     127      M_A    0.0000
    891 C          54.9180  226.1664   41.4921 C.3     127      M_A    0.0000
    892 O          56.2659  226.6304   41.5518 O.3     127      M_A    0.0000
    893 H          55.8452  224.3677   42.2515 H       127      M_A    0.0000
    894 H          54.4365  224.9164   43.1711 H       127      M_A    0.0000
    895 H          54.2605  226.8519   42.0450 H       127      M_A    0.0000
    896 H          54.5816  226.1210   40.4477 H       127      M_A    0.0000
    897 C          56.5589  227.4570   40.4458 C.3     128      M_A    0.0000
    898 C          58.0166  227.8990   40.4120 C.3     128      M_A    0.0000
    899 O          58.0650  229.3229   40.4893 O.3     128      M_A    0.0000
    900 H          55.9000  228.3324   40.4725 H       128      M_A    0.0000
    901 H          56.3330  226.8983   39.5305 H       128      M_A    0.0000
    902 H          58.4529  227.5599   39.4619 H       128      M_A    0.0000
    903 H          58.5879  227.4576   41.2396 H       128      M_A    0.0000
    904 C          59.2968  229.8080   39.9994 C.3     129      M_A    0.0000
    905 C          59.7136  231.1199   40.6525 C.3     129      M_A    0.0000
    906 O          60.4846  231.8722   39.7169 O.3     129      M_A    0.0000
    907 H          59.2217  229.9346   38.9134 H       129      M_A    0.0000
    908 H          60.0652  229.0513   40.1939 H       129      M_A    0.0000
    909 H          60.3233  230.8817   41.5354 H       129      M_A    0.0000
    910 H          58.8397  231.7021   40.9743 H       129      M_A    0.0000
    911 C          61.1713  232.9215   40.3649 C.3     130      M_A    0.0000
    912 C          61.2469  234.1859   39.5182 C.3     130      M_A    0.0000
    913 O          62.6129  234.4364   39.1908 O.3     130      M_A    0.0000
    914 H          62.1801  232.5795   40.6228 H       130      M_A    0.0000
    915 H          60.6475  233.1480   41.3005 H       130      M_A    0.0000
    916 H          60.8451  235.0182   40.1130 H       130      M_A    0.0000
    917 H          60.6517  234.0890   38.6003 H       130      M_A    0.0000
    918 C          63.3303  234.8583   40.3309 C.3     131      M_A    0.0000
    919 C          64.2985  235.9953   40.0288 C.3     131      M_A    0.0000
    920 O          65.5604  235.4374   39.6654 O.3     131      M_A    0.0000
    921 H          63.8729  234.0014   40.7461 H       131      M_A    0.0000
    922 H          62.6094  235.1930   41.0854 H       131      M_A    0.0000
    923 H          64.4049  236.6024   40.9388 H       131      M_A    0.0000
    924 H          63.9233  236.6360   39.2195 H       131      M_A    0.0000
    925 C          66.2857  236.3322   38.8493 C.3     132      M_A    0.0000
    926 C          67.1380  235.6185   37.8074 C.3     132      M_A    0.0000
    927 O          68.1814  236.4976   37.3897 O.3     132      M_A    0.0000
    928 H          66.9174  236.9613   39.4866 H       132      M_A    0.0000
    929 H          65.5706  236.9874   38.3390 H       132      M_A    0.0000
    930 H          66.4931  235.3693   36.9531 H       132      M_A    0.0000
    931 H          67.5662  234.6901   38.2084 H       132      M_A    0.0000
    932 C          68.0936  236.7540   36.0044 C.3     133      M_A    0.0000
    933 C          69.4599  236.8590   35.3382 C.3     133      M_A    0.0000
    934 O          69.6001  238.1669   34.7853 O.3     133      M_A    0.0000
    935 H          67.5267  237.6791   35.8498 H       133      M_A    0.0000
    936 H          67.5305  235.9370   35.5393 H       133      M_A    0.0000
    937 H          69.5070  236.1066   34.5384 H       133      M_A    0.0000
    938 H          70.2700  236.6642   36.0537 H       133      M_A    0.0000
    939 C          70.9005  238.3540   34.2689 C.3     134      M_A    0.0000
    940 C          71.9888  238.0163   35.2803 C.3     134      M_A    0.0000
    941 O          73.2603  238.2823   34.6901 O.3     134      M_A    0.0000
    942 H          71.0041  239.3930   33.9362 H       134      M_A    0.0000
    943 H          71.0164  237.7100   33.3898 H       134      M_A    0.0000
    944 H          71.9054  236.9482   35.5258 H       134      M_A    0.0000
    945 H          71.8727  238.6003   36.2031 H       134      M_A    0.0000
    946 C          73.2305  238.0249   33.3025 C.3     135      M_A    0.0000
    947 C          74.5336  237.4265   32.7874 C.3     135      M_A    0.0000
    948 O          75.3734  238.4850   32.3290 O.3     135      M_A    0.0000
    949 H          73.0089  238.9585   32.7729 H       135      M_A    0.0000
    950 H          72.4112  237.3255   33.1009 H       135      M_A    0.0000
    951 H          74.2921  236.7517   31.9542 H       135      M_A    0.0000
    952 H          75.0465  236.8512   33.5697 H       135      M_A    0.0000
    953 C          76.4311  237.9787   31.5431 C.3     136      M_A    0.0000
    954 C          77.8019  238.2962   32.1274 C.3     136      M_A    0.0000
    955 O          78.6544  238.7468   31.0757 O.3     136      M_A    0.0000
    956 H          76.3486  238.3890   30.5302 H       136      M_A    0.0000
    957 H          76.3154  236.8912   31.4720 H       136      M_A    0.0000
    958 H          78.2056  237.3740   32.5684 H       136      M_A    0.0000
    959 H          77.7350  239.0620   32.9118 H       136      M_A    0.0000
    960 C          79.9695  238.9446   31.5490 C.3     137      M_A    0.0000
    961 C          81.0265  238.6219   30.5001 C.3     137      M_A    0.0000
    962 O          82.0891  237.9051   31.1268 O.3     137      M_A    0.0000
    963 H          80.1224  238.3265   32.4410 H       137      M_A    0.0000
    964 H          80.0719  239.9935   31.8494 H       137      M_A    0.0000
    965 H          81.4029  239.5710   30.0934 H       137      M_A    0.0000
    966 H          80.6058  238.0280   29.6776 H       137      M_A    0.0000
    967 C          82.2662  236.6430   30.5199 C.3     138      M_A    0.0000
    968 C          82.9971  235.6550   31.4205 C.3     138      M_A    0.0000
    969 O          84.1365  235.1554   30.7219 O.3     138      M_A    0.0000
    970 H          82.8155  236.7747   29.5807 H       138      M_A    0.0000
    971 H          81.2778  236.2392   30.2734 H       138      M_A    0.0000
    972 H          82.3075  234.8308   31.6513 H       138      M_A    0.0000
    973 H          83.3098  236.1270   32.3615 H       138      M_A    0.0000
    974 C          84.5024  233.8822   31.2094 C.3     139      M_A    0.0000
    975 C          85.9679  233.5535   30.9532 C.3     139      M_A    0.0000
    976 O          86.0451  232.2909   30.2931 O.3     139      M_A    0.0000
    977 H          83.8595  233.1260   30.7446 H       139      M_A    0.0000
    978 H          84.3141  233.8610   32.2887 H       139      M_A    0.0000
    979 H          86.4795  233.5008   31.9245 H       139      M_A    0.0000
    980 H          86.4507  234.3277   30.3420 H       139      M_A    0.0000
    981 C          87.1916  231.5796   30.7083 C.3     140      M_A    0.0000
    982 C          88.4362  232.4560   30.7715 C.3     140      M_A    0.0000
    983 O          89.3018  232.0999   29.6946 O.3     140      M_A    0.0000
    984 H          87.3559  230.7402   30.0231 H       140      M_A    0.0000
    985 H          86.9956  231.1637   31.7030 H       140      M_A    0.0000
    986 H          88.9360  232.2683   31.7322 H       140      M_A    0.0000
    987 H          88.1787  233.5219   30.7105 H       140      M_A    0.0000
    988 C          88.6945  231.1330   28.8646 C.3     141      M_A    0.0000
    989 C          89.6271  230.6281   27.7706 C.3     141      M_A    0.0000
    990 O          89.3085  231.2991   26.5523 O.3     141      M_A    0.0000
    991 H          87.7904  231.5642   28.4201 H       141      M_A    0.0000
    992 H          88.3869  230.2879   29.4909 H       141      M_A    0.0000
    993 H          89.4644  229.5471   27.6570 H       141      M_A    0.0000
    994 H          90.6799  230.8007   28.0310 H       141      M_A    0.0000
    995 C          90.4795  231.5777   25.8148 C.3     142      M_A    0.0000
    996 C          90.2417  231.5722   24.3098 C.3     142      M_A    0.0000
    997 O          91.1472  230.6489   23.7069 O.3     142      M_A    0.0000
    998 H          91.2481  230.8421   26.0778 H       142      M_A    0.0000
    999 H          90.8473  232.5653   26.1154 H       142      M_A    0.0000
   1000 H          90.4327  232.5863   23.9315 H       142      M_A    0.0000
   1001 H          89.2064  231.2954   24.0693 H       142      M_A    0.0000
   1002 C          90.6295  230.1674   22.4851 C.3     143      M_A    0.0000
   1003 C          91.0445  228.7300   22.1966 C.3     143      M_A    0.0000
   1004 O          90.7620  228.4380   20.8288 O.3     143      M_A    0.0000
   1005 H          90.9620  230.8258   21.6746 H       143      M_A    0.0000
   1006 H          89.5359  230.2218   22.5307 H       143      M_A    0.0000
   1007 H          90.4582  228.0690   22.8501 H       143      M_A    0.0000
   1008 H          92.1118  228.5728   22.4022 H       143      M_A    0.0000
   1009 C          91.8369  228.8300   20.0021 C.3     144      M_A    0.0000
   1010 C          91.5686  228.5684   18.5253 C.3     144      M_A    0.0000
   1011 O          92.3045  227.4137   18.1241 O.3     144      M_A    0.0000
   1012 H          92.7415  228.2996   20.3208 H       144      M_A    0.0000
   1013 H          92.0102  229.9019   20.1501 H       144      M_A    0.0000
   1014 H          91.9083  229.4458   17.9572 H       144      M_A    0.0000
   1015 H          90.4978  228.4174   18.3338 H       144      M_A    0.0000
   1016 C          91.4563  226.2894   18.0282 C.3     145      M_A    0.0000
   1017 C          92.2007  224.9735   18.2169 C.3     145      M_A    0.0000
   1018 O          92.4054  224.3761   16.9374 O.3     145      M_A    0.0000
   1019 H          90.9569  226.3036   17.0527 H       145      M_A    0.0000
   1020 H          90.6825  226.3767   18.7994 H       145      M_A    0.0000
   1021 H          91.5789  224.3175   18.8420 H       145      M_A    0.0000
   1022 H          93.1653  225.1279   18.7187 H       145      M_A    0.0000
   1023 C          93.2423  223.2442   17.0429 C.3     146      M_A    0.0000
   1024 C          94.6712  223.6037   17.4306 C.3     146      M_A    0.0000
   1025 O          95.5282  222.5196   17.0754 O.3     146      M_A    0.0000
   1026 H          93.2346  222.7068   16.0878 H       146      M_A    0.0000
   1027 H          92.8222  222.5767   17.8037 H       146      M_A    0.0000
   1028 H          94.6989  223.7630   18.5177 H       146      M_A    0.0000
   1029 H          95.0019  224.5240   16.9309 H       146      M_A    0.0000
   1030 C          95.6643  222.4294   15.6733 C.3     147      M_A    0.0000
   1031 C          96.4996  221.2312   15.2396 C.3     147      M_A    0.0000
   1032 O          97.8718  221.6205   15.1996 O.3     147      M_A    0.0000
   1033 H          96.1129  223.3569   15.2997 H       147      M_A    0.0000
   1034 H          94.6629  222.3446   15.2362 H       147      M_A    0.0000
   1035 H          96.1661  220.9291   14.2369 H       147      M_A    0.0000
   1036 H          96.3690  220.3831   15.9250 H       147      M_A    0.0000
   1037 C          98.7141  220.4957   15.3337 C.3     148      M_A    0.0000
   1038 C          98.6842  219.9028   16.7369 C.3     148      M_A    0.0000
   1039 O          99.8904  219.1712   16.9503 O.3     148      M_A    0.0000
   1040 H          99.7373  220.7849   15.0682 H       148      M_A    0.0000
   1041 H          98.3867  219.7346   14.6165 H       148      M_A    0.0000
   1042 H          97.8194  219.2277   16.8026 H       148      M_A    0.0000
   1043 H          98.5790  220.6857   17.4999 H       148      M_A    0.0000
   1044 C         100.3216  218.5592   15.7535 C.3     149      M_A    0.0000
   1045 C         101.3255  217.4388   15.9947 C.3     149      M_A    0.0000
   1046 O         101.8281  216.9957   14.7350 O.3     149      M_A    0.0000
   1047 H         100.7592  219.3237   15.1016 H       149      M_A    0.0000
   1048 H          99.4433  218.1490   15.2423 H       149      M_A    0.0000
   1049 H         100.8014  216.6154   16.5001 H       149      M_A    0.0000
   1050 H         102.1537  217.7741   16.6333 H       149      M_A    0.0000
   1051 C         102.6357  215.8490   14.8950 C.3     150      M_A    0.0000
   1052 C         102.0978  214.6408   14.1385 C.3     150      M_A    0.0000
   1053 O         102.1777  213.4967   14.9873 O.3     150      M_A    0.0000
   1054 H         102.7180  215.6190   15.9633 H       150      M_A    0.0000
   1055 H         103.6409  216.0834   14.5268 H       150      M_A    0.0000
   1056 H         102.7235  214.4912   13.2474 H       150      M_A    0.0000
   1057 H         101.0596  214.7994   13.8175 H       150      M_A    0.0000
   1058 C         101.9223  213.8519   16.3294 C.3     151      M_A    0.0000
   1059 C         102.3780  215.2677   16.6599 C.3     151      M_A    0.0000
   1060 O         103.7693  215.2387   16.9751 O.3     151      M_A    0.0000
   1061 H         102.4209  213.1318   16.9882 H       151      M_A    0.0000
   1062 H         100.8436  213.7727   16.5059 H       151      M_A    0.0000
   1063 H         101.8035  215.6157   17.5298 H       151      M_A    0.0000
   1064 H         102.1966  215.9526   15.8207 H       151      M_A    0.0000
   1065 H         104.0492  216.0829   17.3866 H       151      M_A    0.0000
   1066 H         189.2043   62.7338   59.2001 H         0      M_A    0.0000
@<TRIPOS>BOND
     1     1     2      1
     2     1     4      1
     3     1     5      1
     4     1  1066      1
     5     2     3      1
     6     2     6      1
     7     2     7      1
     8     3     8      1
     9     8     9      1
    10     8    11      1
    11     8    12      1
    12     9    10      1
    13     9    13      1
    14     9    14      1
    15    10    15      1
    16    15    16      1
    17    15    18      1
    18    15    19      1
    19    16    17      1
    20    16    20      1
    21    16    21      1
    22    17    22      1
    23    22    23      1
    24    22    25      1
    25    22    26      1
    26    23    24      1
    27    23    27      1
    28    23    28      1
    29    24    29      1
    30    29    30      1
    31    29    32      1
    32    29    33      1
    33    30    31      1
    34    30    34      1
    35    30    35      1
    36    31    36      1
    37    36    37      1
    38    36    39      1
    39    36    40      1
    40    37    38      1
    41    37    41      1
    42    37    42      1
    43    38    43      1
    44    43    44      1
    45    43    46      1
    46    43    47      1
    47    44    45      1
    48    44    48      1
    49    44    49      1
    50    45    50      1
    51    50    51      1
    52    50    53      1
    53    50    54      1
    54    51    52      1
    55    51    55      1
    56    51    56      1
    57    52    57      1
    58    57    58      1
    59    57    60      1
    60    57    61      1
    61    58    59      1
    62    58    62      1
    63    58    63      1
    64    59    64      1
    65    64    65      1
    66    64    67      1
    67    64    68      1
    68    65    66      1
    69    65    69      1
    70    65    70      1
    71    66    71      1
    72    71    72      1
    73    71    74      1
    74    71    75      1
    75    72    73      1
    76    72    76      1
    77    72    77      1
    78    73    78      1
    79    78    79      1
    80    78    81      1
    81    78    82      1
    82    79    80      1
    83    79    83      1
    84    79    84      1
    85    80    85      1
    86    85    86      1
    87    85    88      1
    88    85    89      1
    89    86    87      1
    90    86    90      1
    91    86    91      1
    92    87    92      1
    93    92    93      1
    94    92    95      1
    95    92    96      1
    96    93    94      1
    97    93    97      1
    98    93    98      1
    99    94    99      1
   100    99   100      1
   101    99   102      1
   102    99   103      1
   103   100   101      1
   104   100   104      1
   105   100   105      1
   106   101   106      1
   107   106   107      1
   108   106   109      1
   109   106   110      1
   110   107   108      1
   111   107   111      1
   112   107   112      1
   113   108   113      1
   114   113   114      1
   115   113   116      1
   116   113   117      1
   117   114   115      1
   118   114   118      1
   119   114   119      1
   120   115   120      1
   121   120   121      1
   122   120   123      1
   123   120   124      1
   124   121   122      1
   125   121   125      1
   126   121   126      1
   127   122   127      1
   128   127   128      1
   129   127   130      1
   130   127   131      1
   131   128   129      1
   132   128   132      1
   133   128   133      1
   134   129   134      1
   135   134   135      1
   136   134   137      1
   137   134   138      1
   138   135   136      1
   139   135   139      1
   140   135   140      1
   141   136   141      1
   142   141   142      1
   143   141   144      1
   144   141   145      1
   145   142   143      1
   146   142   146      1
   147   142   147      1
   148   143   148      1
   149   148   149      1
   150   148   151      1
   151   148   152      1
   152   149   150      1
   153   149   153      1
   154   149   154      1
   155   150   155      1
   156   155   156      1
   157   155   158      1
   158   155   159      1
   159   156   157      1
   160   156   160      1
   161   156   161      1
   162   157   162      1
   163   162   163      1
   164   162   165      1
   165   162   166      1
   166   163   164      1
   167   163   167      1
   168   163   168      1
   169   164   169      1
   170   169   170      1
   171   169   172      1
   172   169   173      1
   173   170   171      1
   174   170   174      1
   175   170   175      1
   176   171   176      1
   177   176   177      1
   178   176   179      1
   179   176   180      1
   180   177   178      1
   181   177   181      1
   182   177   182      1
   183   178   183      1
   184   183   184      1
   185   183   186      1
   186   183   187      1
   187   184   185      1
   188   184   188      1
   189   184   189      1
   190   185   190      1
   191   190   191      1
   192   190   193      1
   193   190   194      1
   194   191   192      1
   195   191   195      1
   196   191   196      1
   197   192   197      1
   198   197   198      1
   199   197   200      1
   200   197   201      1
   201   198   199      1
   202   198   202      1
   203   198   203      1
   204   199   204      1
   205   204   205      1
   206   204   207      1
   207   204   208      1
   208   205   206      1
   209   205   209      1
   210   205   210      1
   211   206   211      1
   212   211   212      1
   213   211   214      1
   214   211   215      1
   215   212   213      1
   216   212   216      1
   217   212   217      1
   218   213   218      1
   219   218   219      1
   220   218   221      1
   221   218   222      1
   222   219   220      1
   223   219   223      1
   224   219   224      1
   225   220   225      1
   226   225   226      1
   227   225   228      1
   228   225   229      1
   229   226   227      1
   230   226   230      1
   231   226   231      1
   232   227   232      1
   233   232   233      1
   234   232   235      1
   235   232   236      1
   236   233   234      1
   237   233   237      1
   238   233   238      1
   239   234   239      1
   240   239   240      1
   241   239   242      1
   242   239   243      1
   243   240   241      1
   244   240   244      1
   245   240   245      1
   246   241   246      1
   247   246   247      1
   248   246   249      1
   249   246   250      1
   250   247   248      1
   251   247   251      1
   252   247   252      1
   253   248   253      1
   254   253   254      1
   255   253   256      1
   256   253   257      1
   257   254   255      1
   258   254   258      1
   259   254   259      1
   260   255   260      1
   261   260   261      1
   262   260   263      1
   263   260   264      1
   264   261   262      1
   265   261   265      1
   266   261   266      1
   267   262   267      1
   268   267   268      1
   269   267   270      1
   270   267   271      1
   271   268   269      1
   272   268   272      1
   273   268   273      1
   274   269   274      1
   275   274   275      1
   276   274   277      1
   277   274   278      1
   278   275   276      1
   279   275   279      1
   280   275   280      1
   281   276   281      1
   282   281   282      1
   283   281   284      1
   284   281   285      1
   285   282   283      1
   286   282   286      1
   287   282   287      1
   288   283   288      1
   289   288   289      1
   290   288   291      1
   291   288   292      1
   292   289   290      1
   293   289   293      1
   294   289   294      1
   295   290   295      1
   296   295   296      1
   297   295   298      1
   298   295   299      1
   299   296   297      1
   300   296   300      1
   301   296   301      1
   302   297   302      1
   303   302   303      1
   304   302   305      1
   305   302   306      1
   306   303   304      1
   307   303   307      1
   308   303   308      1
   309   304   309      1
   310   309   310      1
   311   309   312      1
   312   309   313      1
   313   310   311      1
   314   310   314      1
   315   310   315      1
   316   311   316      1
   317   316   317      1
   318   316   319      1
   319   316   320      1
   320   317   318      1
   321   317   321      1
   322   317   322      1
   323   318   323      1
   324   323   324      1
   325   323   326      1
   326   323   327      1
   327   324   325      1
   328   324   328      1
   329   324   329      1
   330   325   330      1
   331   330   331      1
   332   330   333      1
   333   330   334      1
   334   331   332      1
   335   331   335      1
   336   331   336      1
   337   332   337      1
   338   337   338      1
   339   337   340      1
   340   337   341      1
   341   338   339      1
   342   338   342      1
   343   338   343      1
   344   339   344      1
   345   344   345      1
   346   344   347      1
   347   344   348      1
   348   345   346      1
   349   345   349      1
   350   345   350      1
   351   346   351      1
   352   351   352      1
   353   351   354      1
   354   351   355      1
   355   352   353      1
   356   352   356      1
   357   352   357      1
   358   353   358      1
   359   358   359      1
   360   358   361      1
   361   358   362      1
   362   359   360      1
   363   359   363      1
   364   359   364      1
   365   360   365      1
   366   365   366      1
   367   365   368      1
   368   365   369      1
   369   366   367      1
   370   366   370      1
   371   366   371      1
   372   367   372      1
   373   372   373      1
   374   372   375      1
   375   372   376      1
   376   373   374      1
   377   373   377      1
   378   373   378      1
   379   374   379      1
   380   379   380      1
   381   379   382      1
   382   379   383      1
   383   380   381      1
   384   380   384      1
   385   380   385      1
   386   381   386      1
   387   386   387      1
   388   386   389      1
   389   386   390      1
   390   387   388      1
   391   387   391      1
   392   387   392      1
   393   388   393      1
   394   393   394      1
   395   393   396      1
   396   393   397      1
   397   394   395      1
   398   394   398      1
   399   394   399      1
   400   395   400      1
   401   400   401      1
   402   400   403      1
   403   400   404      1
   404   401   402      1
   405   401   405      1
   406   401   406      1
   407   402   407      1
   408   407   408      1
   409   407   410      1
   410   407   411      1
   411   408   409      1
   412   408   412      1
   413   408   413      1
   414   409   414      1
   415   414   415      1
   416   414   417      1
   417   414   418      1
   418   415   416      1
   419   415   419      1
   420   415   420      1
   421   416   421      1
   422   421   422      1
   423   421   424      1
   424   421   425      1
   425   422   423      1
   426   422   426      1
   427   422   427      1
   428   423   428      1
   429   428   429      1
   430   428   431      1
   431   428   432      1
   432   429   430      1
   433   429   433      1
   434   429   434      1
   435   430   435      1
   436   435   436      1
   437   435   438      1
   438   435   439      1
   439   436   437      1
   440   436   440      1
   441   436   441      1
   442   437   442      1
   443   442   443      1
   444   442   445      1
   445   442   446      1
   446   443   444      1
   447   443   447      1
   448   443   448      1
   449   444   449      1
   450   449   450      1
   451   449   452      1
   452   449   453      1
   453   450   451      1
   454   450   454      1
   455   450   455      1
   456   451   456      1
   457   456   457      1
   458   456   459      1
   459   456   460      1
   460   457   458      1
   461   457   461      1
   462   457   462      1
   463   458   463      1
   464   463   464      1
   465   463   466      1
   466   463   467      1
   467   464   465      1
   468   464   468      1
   469   464   469      1
   470   465   470      1
   471   470   471      1
   472   470   473      1
   473   470   474      1
   474   471   472      1
   475   471   475      1
   476   471   476      1
   477   472   477      1
   478   477   478      1
   479   477   480      1
   480   477   481      1
   481   478   479      1
   482   478   482      1
   483   478   483      1
   484   479   484      1
   485   484   485      1
   486   484   487      1
   487   484   488      1
   488   485   486      1
   489   485   489      1
   490   485   490      1
   491   486   491      1
   492   491   492      1
   493   491   494      1
   494   491   495      1
   495   492   493      1
   496   492   496      1
   497   492   497      1
   498   493   498      1
   499   498   499      1
   500   498   501      1
   501   498   502      1
   502   499   500      1
   503   499   503      1
   504   499   504      1
   505   500   505      1
   506   505   506      1
   507   505   508      1
   508   505   509      1
   509   506   507      1
   510   506   510      1
   511   506   511      1
   512   507   512      1
   513   512   513      1
   514   512   515      1
   515   512   516      1
   516   513   514      1
   517   513   517      1
   518   513   518      1
   519   514   519      1
   520   519   520      1
   521   519   522      1
   522   519   523      1
   523   520   521      1
   524   520   524      1
   525   520   525      1
   526   521   526      1
   527   526   527      1
   528   526   529      1
   529   526   530      1
   530   527   528      1
   531   527   531      1
   532   527   532      1
   533   528   533      1
   534   533   534      1
   535   533   536      1
   536   533   537      1
   537   534   535      1
   538   534   538      1
   539   534   539      1
   540   535   540      1
   541   540   541      1
   542   540   543      1
   543   540   544      1
   544   541   542      1
   545   541   545      1
   546   541   546      1
   547   542   547      1
   548   547   548      1
   549   547   550      1
   550   547   551      1
   551   548   549      1
   552   548   552      1
   553   548   553      1
   554   549   554      1
   555   554   555      1
   556   554   557      1
   557   554   558      1
   558   555   556      1
   559   555   559      1
   560   555   560      1
   561   556   561      1
   562   561   562      1
   563   561   564      1
   564   561   565      1
   565   562   563      1
   566   562   566      1
   567   562   567      1
   568   563   568      1
   569   568   569      1
   570   568   571      1
   571   568   572      1
   572   569   570      1
   573   569   573      1
   574   569   574      1
   575   570   575      1
   576   575   576      1
   577   575   578      1
   578   575   579      1
   579   576   577      1
   580   576   580      1
   581   576   581      1
   582   577   582      1
   583   582   583      1
   584   582   585      1
   585   582   586      1
   586   583   584      1
   587   583   587      1
   588   583   588      1
   589   584   589      1
   590   589   590      1
   591   589   592      1
   592   589   593      1
   593   590   591      1
   594   590   594      1
   595   590   595      1
   596   591   596      1
   597   596   597      1
   598   596   599      1
   599   596   600      1
   600   597   598      1
   601   597   601      1
   602   597   602      1
   603   598   603      1
   604   603   604      1
   605   603   606      1
   606   603   607      1
   607   604   605      1
   608   604   608      1
   609   604   609      1
   610   605   610      1
   611   610   611      1
   612   610   613      1
   613   610   614      1
   614   611   612      1
   615   611   615      1
   616   611   616      1
   617   612   617      1
   618   617   618      1
   619   617   620      1
   620   617   621      1
   621   618   619      1
   622   618   622      1
   623   618   623      1
   624   619   624      1
   625   624   625      1
   626   624   627      1
   627   624   628      1
   628   625   626      1
   629   625   629      1
   630   625   630      1
   631   626   631      1
   632   631   632      1
   633   631   634      1
   634   631   635      1
   635   632   633      1
   636   632   636      1
   637   632   637      1
   638   633   638      1
   639   638   639      1
   640   638   641      1
   641   638   642      1
   642   639   640      1
   643   639   643      1
   644   639   644      1
   645   640   645      1
   646   645   646      1
   647   645   648      1
   648   645   649      1
   649   646   647      1
   650   646   650      1
   651   646   651      1
   652   647   652      1
   653   652   653      1
   654   652   655      1
   655   652   656      1
   656   653   654      1
   657   653   657      1
   658   653   658      1
   659   654   659      1
   660   659   660      1
   661   659   662      1
   662   659   663      1
   663   660   661      1
   664   660   664      1
   665   660   665      1
   666   661   666      1
   667   666   667      1
   668   666   669      1
   669   666   670      1
   670   667   668      1
   671   667   671      1
   672   667   672      1
   673   668   673      1
   674   673   674      1
   675   673   676      1
   676   673   677      1
   677   674   675      1
   678   674   678      1
   679   674   679      1
   680   675   680      1
   681   680   681      1
   682   680   683      1
   683   680   684      1
   684   681   682      1
   685   681   685      1
   686   681   686      1
   687   682   687      1
   688   687   688      1
   689   687   690      1
   690   687   691      1
   691   688   689      1
   692   688   692      1
   693   688   693      1
   694   689   694      1
   695   694   695      1
   696   694   697      1
   697   694   698      1
   698   695   696      1
   699   695   699      1
   700   695   700      1
   701   696   701      1
   702   701   702      1
   703   701   704      1
   704   701   705      1
   705   702   703      1
   706   702   706      1
   707   702   707      1
   708   703   708      1
   709   708   709      1
   710   708   711      1
   711   708   712      1
   712   709   710      1
   713   709   713      1
   714   709   714      1
   715   710   715      1
   716   715   716      1
   717   715   718      1
   718   715   719      1
   719   716   717      1
   720   716   720      1
   721   716   721      1
   722   717   722      1
   723   722   723      1
   724   722   725      1
   725   722   726      1
   726   723   724      1
   727   723   727      1
   728   723   728      1
   729   724   729      1
   730   729   730      1
   731   729   732      1
   732   729   733      1
   733   730   731      1
   734   730   734      1
   735   730   735      1
   736   731   736      1
   737   736   737      1
   738   736   739      1
   739   736   740      1
   740   737   738      1
   741   737   741      1
   742   737   742      1
   743   738   743      1
   744   743   744      1
   745   743   746      1
   746   743   747      1
   747   744   745      1
   748   744   748      1
   749   744   749      1
   750   745   750      1
   751   750   751      1
   752   750   753      1
   753   750   754      1
   754   751   752      1
   755   751   755      1
   756   751   756      1
   757   752   757      1
   758   757   758      1
   759   757   760      1
   760   757   761      1
   761   758   759      1
   762   758   762      1
   763   758   763      1
   764   759   764      1
   765   764   765      1
   766   764   767      1
   767   764   768      1
   768   765   766      1
   769   765   769      1
   770   765   770      1
   771   766   771      1
   772   771   772      1
   773   771   774      1
   774   771   775      1
   775   772   773      1
   776   772   776      1
   777   772   777      1
   778   773   778      1
   779   778   779      1
   780   778   781      1
   781   778   782      1
   782   779   780      1
   783   779   783      1
   784   779   784      1
   785   780   785      1
   786   785   786      1
   787   785   788      1
   788   785   789      1
   789   786   787      1
   790   786   790      1
   791   786   791      1
   792   787   792      1
   793   792   793      1
   794   792   795      1
   795   792   796      1
   796   793   794      1
   797   793   797      1
   798   793   798      1
   799   794   799      1
   800   799   800      1
   801   799   802      1
   802   799   803      1
   803   800   801      1
   804   800   804      1
   805   800   805      1
   806   801   806      1
   807   806   807      1
   808   806   809      1
   809   806   810      1
   810   807   808      1
   811   807   811      1
   812   807   812      1
   813   808   813      1
   814   813   814      1
   815   813   816      1
   816   813   817      1
   817   814   815      1
   818   814   818      1
   819   814   819      1
   820   815   820      1
   821   820   821      1
   822   820   823      1
   823   820   824      1
   824   821   822      1
   825   821   825      1
   826   821   826      1
   827   822   827      1
   828   827   828      1
   829   827   830      1
   830   827   831      1
   831   828   829      1
   832   828   832      1
   833   828   833      1
   834   829   834      1
   835   834   835      1
   836   834   837      1
   837   834   838      1
   838   835   836      1
   839   835   839      1
   840   835   840      1
   841   836   841      1
   842   841   842      1
   843   841   844      1
   844   841   845      1
   845   842   843      1
   846   842   846      1
   847   842   847      1
   848   843   848      1
   849   848   849      1
   850   848   851      1
   851   848   852      1
   852   849   850      1
   853   849   853      1
   854   849   854      1
   855   850   855      1
   856   855   856      1
   857   855   858      1
   858   855   859      1
   859   856   857      1
   860   856   860      1
   861   856   861      1
   862   857   862      1
   863   862   863      1
   864   862   865      1
   865   862   866      1
   866   863   864      1
   867   863   867      1
   868   863   868      1
   869   864   869      1
   870   869   870      1
   871   869   872      1
   872   869   873      1
   873   870   871      1
   874   870   874      1
   875   870   875      1
   876   871   876      1
   877   876   877      1
   878   876   879      1
   879   876   880      1
   880   877   878      1
   881   877   881      1
   882   877   882      1
   883   878   883      1
   884   883   884      1
   885   883   886      1
   886   883   887      1
   887   884   885      1
   888   884   888      1
   889   884   889      1
   890   885   890      1
   891   890   891      1
   892   890   893      1
   893   890   894      1
   894   891   892      1
   895   891   895      1
   896   891   896      1
   897   892   897      1
   898   897   898      1
   899   897   900      1
   900   897   901      1
   901   898   899      1
   902   898   902      1
   903   898   903      1
   904   899   904      1
   905   904   905      1
   906   904   907      1
   907   904   908      1
   908   905   906      1
   909   905   909      1
   910   905   910      1
   911   906   911      1
   912   911   912      1
   913   911   914      1
   914   911   915      1
   915   912   913      1
   916   912   916      1
   917   912   917      1
   918   913   918      1
   919   918   919      1
   920   918   921      1
   921   918   922      1
   922   919   920      1
   923   919   923      1
   924   919   924      1
   925   920   925      1
   926   925   926      1
   927   925   928      1
   928   925   929      1
   929   926   927      1
   930   926   930      1
   931   926   931      1
   932   927   932      1
   933   932   933      1
   934   932   935      1
   935   932   936      1
   936   933   934      1
   937   933   937      1
   938   933   938      1
   939   934   939      1
   940   939   940      1
   941   939   942      1
   942   939   943      1
   943   940   941      1
   944   940   944      1
   945   940   945      1
   946   941   946      1
   947   946   947      1
   948   946   949      1
   949   946   950      1
   950   947   948      1
   951   947   951      1
   952   947   952      1
   953   948   953      1
   954   953   954      1
   955   953   956      1
   956   953   957      1
   957   954   955      1
   958   954   958      1
   959   954   959      1
   960   955   960      1
   961   960   961      1
   962   960   963      1
   963   960   964      1
   964   961   962      1
   965   961   965      1
   966   961   966      1
   967   962   967      1
   968   967   968      1
   969   967   970      1
   970   967   971      1
   971   968   969      1
   972   968   972      1
   973   968   973      1
   974   969   974      1
   975   974   975      1
   976   974   977      1
   977   974   978      1
   978   975   976      1
   979   975   979      1
   980   975   980      1
   981   976   981      1
   982   981   982      1
   983   981   984      1
   984   981   985      1
   985   982   983      1
   986   982   986      1
   987   982   987      1
   988   983   988      1
   989   988   989      1
   990   988   991      1
   991   988   992      1
   992   989   990      1
   993   989   993      1
   994   989   994      1
   995   990   995      1
   996   995   996      1
   997   995   998      1
   998   995   999      1
   999   996   997      1
  1000   996  1000      1
  1001   996  1001      1
  1002   997  1002      1
  1003  1002  1003      1
  1004  1002  1005      1
  1005  1002  1006      1
  1006  1003  1004      1
  1007  1003  1007      1
  1008  1003  1008      1
  1009  1004  1009      1
  1010  1009  1010      1
  1011  1009  1012      1
  1012  1009  1013      1
  1013  1010  1011      1
  1014  1010  1014      1
  1015  1010  1015      1
  1016  1011  1016      1
  1017  1016  1017      1
  1018  1016  1019      1
  1019  1016  1020      1
  1020  1017  1018      1
  1021  1017  1021      1
  1022  1017  1022      1
  1023  1018  1023      1
  1024  1023  1024      1
  1025  1023  1026      1
  1026  1023  1027      1
  1027  1024  1025      1
  1028  1024  1028      1
  1029  1024  1029      1
  1030  1025  1030      1
  1031  1030  1031      1
  1032  1030  1033      1
  1033  1030  1034      1
  1034  1031  1032      1
  1035  1031  1035      1
  1036  1031  1036      1
  1037  1032  1037      1
  1038  1037  1038      1
  1039  1037  1040      1
  1040  1037  1041      1
  1041  1038  1039      1
  1042  1038  1042      1
  1043  1038  1043      1
  1044  1039  1044      1
  1045  1044  1045      1
  1046  1044  1047      1
  1047  1044  1048      1
  1048  1045  1046      1
  1049  1045  1049      1
  1050  1045  1050      1
  1051  1046  1051      1
  1052  1051  1052      1
  1053  1051  1054      1
  1054  1051  1055      1
  1055  1052  1053      1
  1056  1052  1056      1
  1057  1052  1057      1
  1058  1053  1058      1
  1059  1058  1059      1
  1060  1058  1061      1
  1061  1058  1062      1
  1062  1059  1060      1
  1063  1059  1063      1
  1064  1059  1064      1
  1065  1060  1065      1
