###
### Created by PolyChef-cpp17 on Mon May 12 10:39:10 2025
###

@<TRIPOS>MOLECULE
NO_INFO
996 995 1 0 0
SMALL
USER_CHARGES


@<TRIPOS>ATOM
      1 C          24.7583  105.1506   28.6417 C.3       0      M_A    0.0000
      2 C          25.2640  104.2593   29.7722 C.3       0      M_A    0.0000
      3 O          26.0220  105.0227   30.7105 O.3       0      M_A    0.0000
      4 H          25.2427  104.8464   27.7068 H         0      M_A    0.0000
      5 H          25.0144  106.2002   28.8211 H         0      M_A    0.0000
      6 H          24.4276  103.8049   30.3179 H         0      M_A    0.0000
      7 H          25.8548  103.4268   29.3639 H         0      M_A    0.0000
      8 C          27.1066  105.6796   30.0867 C.3       1      M_A    0.0000
      9 C          28.2612  105.9262   31.0532 C.3       1      M_A    0.0000
     10 O          28.9095  107.1622   30.7534 O.3       1      M_A    0.0000
     11 H          27.4599  105.0431   29.2673 H         1      M_A    0.0000
     12 H          26.7514  106.6179   29.6476 H         1      M_A    0.0000
     13 H          27.9011  105.9865   32.0878 H         1      M_A    0.0000
     14 H          28.9691  105.0854   31.0212 H         1      M_A    0.0000
     15 C          30.1752  106.9521   30.1612 C.3       2      M_A    0.0000
     16 C          31.2093  107.9660   30.6417 C.3       2      M_A    0.0000
     17 O          31.4558  108.9457   29.6331 O.3       2      M_A    0.0000
     18 H          30.5121  105.9455   30.4342 H         2      M_A    0.0000
     19 H          30.0692  106.9817   29.0715 H         2      M_A    0.0000
     20 H          30.8543  108.4958   31.5345 H         2      M_A    0.0000
     21 H          32.1362  107.4526   30.9354 H         2      M_A    0.0000
     22 C          32.7242  109.5471   29.7953 C.3       3      M_A    0.0000
     23 C          32.7413  110.5500   30.9451 C.3       3      M_A    0.0000
     24 O          31.9483  111.6929   30.6242 O.3       3      M_A    0.0000
     25 H          33.4492  108.7529   30.0068 H         3      M_A    0.0000
     26 H          33.0180  110.0213   28.8528 H         3      M_A    0.0000
     27 H          32.3249  110.1072   31.8585 H         3      M_A    0.0000
     28 H          33.7758  110.8355   31.1844 H         3      M_A    0.0000
     29 C          32.3223  112.8154   31.3969 C.3       4      M_A    0.0000
     30 C          31.1562  113.7741   31.6185 C.3       4      M_A    0.0000
     31 O          31.5711  115.1238   31.4082 O.3       4      M_A    0.0000
     32 H          32.6732  112.4529   32.3699 H         4      M_A    0.0000
     33 H          33.1626  113.3210   30.9091 H         4      M_A    0.0000
     34 H          30.3395  113.5681   30.9154 H         4      M_A    0.0000
     35 H          30.7382  113.6367   32.6261 H         4      M_A    0.0000
     36 C          30.6720  116.0394   32.0000 C.3       5      M_A    0.0000
     37 C          30.2125  117.1107   31.0155 C.3       5      M_A    0.0000
     38 O          30.3289  118.4087   31.5980 O.3       5      M_A    0.0000
     39 H          29.7971  115.4769   32.3458 H         5      M_A    0.0000
     40 H          31.1461  116.4880   32.8795 H         5      M_A    0.0000
     41 H          30.8299  117.1011   30.1085 H         5      M_A    0.0000
     42 H          29.1819  116.9096   30.6895 H         5      M_A    0.0000
     43 C          30.4940  119.4059   30.6104 C.3       6      M_A    0.0000
     44 C          29.5470  120.5838   30.8198 C.3       6      M_A    0.0000
     45 O          28.9443  120.9672   29.5838 O.3       6      M_A    0.0000
     46 H          31.5272  119.7675   30.6661 H         6      M_A    0.0000
     47 H          30.3533  118.9564   29.6217 H         6      M_A    0.0000
     48 H          28.7377  120.3187   31.5116 H         6      M_A    0.0000
     49 H          30.0840  121.4252   31.2808 H         6      M_A    0.0000
     50 C          27.6339  121.4592   29.7780 C.3       7      M_A    0.0000
     51 C          26.9868  121.9016   28.4689 C.3       7      M_A    0.0000
     52 O          26.2539  123.1121   28.6569 O.3       7      M_A    0.0000
     53 H          27.0331  120.6540   30.2162 H         7      M_A    0.0000
     54 H          27.6643  122.2810   30.5014 H         7      M_A    0.0000
     55 H          27.7463  122.0933   27.7007 H         7      M_A    0.0000
     56 H          26.3436  121.1019   28.0743 H         7      M_A    0.0000
     57 C          25.9350  123.7207   27.4221 C.3       8      M_A    0.0000
     58 C          24.4306  123.7531   27.1696 C.3       8      M_A    0.0000
     59 O          24.1341  123.2890   25.8525 O.3       8      M_A    0.0000
     60 H          26.3128  124.7493   27.4459 H         8      M_A    0.0000
     61 H          26.4596  123.1937   26.6180 H         8      M_A    0.0000
     62 H          23.9000  123.1013   27.8748 H         8      M_A    0.0000
     63 H          24.0401  124.7678   27.3333 H         8      M_A    0.0000
     64 C          24.3167  124.3087   24.8915 C.3       9      M_A    0.0000
     65 C          23.8813  123.8681   23.4970 C.3       9      M_A    0.0000
     66 O          25.0198  123.6212   22.6719 O.3       9      M_A    0.0000
     67 H          23.7122  125.1708   25.1958 H         9      M_A    0.0000
     68 H          25.3663  124.6216   24.8974 H         9      M_A    0.0000
     69 H          23.3008  122.9382   23.5426 H         9      M_A    0.0000
     70 H          23.2196  124.6236   23.0496 H         9      M_A    0.0000
     71 C          25.5363  124.8202   22.1309 C.3      10      M_A    0.0000
     72 C          25.5987  124.7822   20.6069 C.3      10      M_A    0.0000
     73 O          26.7724  124.0965   20.1710 O.3      10      M_A    0.0000
     74 H          24.8771  125.6401   22.4385 H        10      M_A    0.0000
     75 H          26.5248  125.0102   22.5625 H        10      M_A    0.0000
     76 H          24.7339  124.2498   20.1916 H        10      M_A    0.0000
     77 H          25.5576  125.8028   20.1999 H        10      M_A    0.0000
     78 C          26.6682  123.7012   18.8183 C.3      11      M_A    0.0000
     79 C          27.2722  122.3212   18.5752 C.3      11      M_A    0.0000
     80 O          28.1814  122.3596   17.4753 O.3      11      M_A    0.0000
     81 H          25.6043  123.6737   18.5563 H        11      M_A    0.0000
     82 H          27.1453  124.4583   18.1870 H        11      M_A    0.0000
     83 H          27.8333  121.9780   19.4534 H        11      M_A    0.0000
     84 H          26.4753  121.5820   18.4097 H        11      M_A    0.0000
     85 C          28.2001  121.1313   16.7768 C.3      12      M_A    0.0000
     86 C          29.5813  120.8133   16.2117 C.3      12      M_A    0.0000
     87 O          29.6922  121.2817   14.8678 O.3      12      M_A    0.0000
     88 H          27.9134  120.3400   17.4788 H        12      M_A    0.0000
     89 H          27.4454  121.1598   15.9836 H        12      M_A    0.0000
     90 H          30.3679  121.3055   16.7971 H        12      M_A    0.0000
     91 H          29.7783  119.7335   16.2763 H        12      M_A    0.0000
     92 C          30.3929  122.5072   14.8034 C.3      13      M_A    0.0000
     93 C          30.7149  122.9097   13.3673 C.3      13      M_A    0.0000
     94 O          32.0515  123.4022   13.2733 O.3      13      M_A    0.0000
     95 H          29.7613  123.2806   15.2552 H        13      M_A    0.0000
     96 H          31.3041  122.4300   15.4061 H        13      M_A    0.0000
     97 H          30.6335  122.0496   12.6909 H        13      M_A    0.0000
     98 H          29.9886  123.6536   13.0096 H        13      M_A    0.0000
     99 C          32.1665  124.6956   13.8309 C.3      14      M_A    0.0000
    100 C          32.8783  125.6646   12.8914 C.3      14      M_A    0.0000
    101 O          34.2890  125.4488   12.9249 O.3      14      M_A    0.0000
    102 H          31.1549  125.0696   14.0260 H        14      M_A    0.0000
    103 H          32.6849  124.6251   14.7930 H        14      M_A    0.0000
    104 H          32.5484  125.5203   11.8550 H        14      M_A    0.0000
    105 H          32.6261  126.7021   13.1541 H        14      M_A    0.0000
    106 C          34.9197  125.9722   11.7737 C.3      15      M_A    0.0000
    107 C          35.6320  124.8903   10.9673 C.3      15      M_A    0.0000
    108 O          36.9866  124.7557   11.3974 O.3      15      M_A    0.0000
    109 H          34.1477  126.4318   11.1460 H        15      M_A    0.0000
    110 H          35.6152  126.7626   12.0754 H        15      M_A    0.0000
    111 H          35.1461  123.9159   11.1025 H        15      M_A    0.0000
    112 H          35.5743  125.1177    9.8931 H        15      M_A    0.0000
    113 C          37.5089  123.4838   11.0711 C.3      16      M_A    0.0000
    114 C          38.7589  123.1516   11.8806 C.3      16      M_A    0.0000
    115 O          39.9277  123.6310   11.2158 O.3      16      M_A    0.0000
    116 H          36.7370  122.7367   11.2882 H        16      M_A    0.0000
    117 H          37.7129  123.4465    9.9957 H        16      M_A    0.0000
    118 H          38.7246  123.6273   12.8687 H        16      M_A    0.0000
    119 H          38.8174  122.0686   12.0612 H        16      M_A    0.0000
    120 C          40.9514  123.9510   12.1358 C.3      17      M_A    0.0000
    121 C          41.6553  125.2573   11.7801 C.3      17      M_A    0.0000
    122 O          43.0722  125.0959   11.8443 O.3      17      M_A    0.0000
    123 H          40.4942  124.0531   13.1267 H        17      M_A    0.0000
    124 H          41.6622  123.1192   12.1832 H        17      M_A    0.0000
    125 H          41.4064  125.5718   10.7589 H        17      M_A    0.0000
    126 H          41.3143  126.0650   12.4437 H        17      M_A    0.0000
    127 C          43.7277  126.3380   12.0001 C.3      18      M_A    0.0000
    128 C          45.0168  126.4128   11.1872 C.3      18      M_A    0.0000
    129 O          45.9908  127.2059   11.8655 O.3      18      M_A    0.0000
    130 H          43.0458  127.1243   11.6566 H        18      M_A    0.0000
    131 H          43.9211  126.5090   13.0645 H        18      M_A    0.0000
    132 H          45.4485  125.4145   11.0431 H        18      M_A    0.0000
    133 H          44.8093  126.8075   10.1822 H        18      M_A    0.0000
    134 C          46.5079  128.2190   11.0269 C.3      19      M_A    0.0000
    135 C          47.8269  128.7798   11.5502 C.3      19      M_A    0.0000
    136 O          47.8233  130.2061   11.4901 O.3      19      M_A    0.0000
    137 H          46.6765  127.7826   10.0358 H        19      M_A    0.0000
    138 H          45.7579  129.0096   10.9174 H        19      M_A    0.0000
    139 H          47.9863  128.4956   12.5979 H        19      M_A    0.0000
    140 H          48.6699  128.3579   10.9842 H        19      M_A    0.0000
    141 C          48.9543  130.7539   12.1363 C.3      20      M_A    0.0000
    142 C          49.8554  131.5157   11.1689 C.3      20      M_A    0.0000
    143 O          51.1709  131.6463   11.7077 O.3      20      M_A    0.0000
    144 H          48.5991  131.4452   12.9091 H        20      M_A    0.0000
    145 H          49.5034  129.9500   12.6381 H        20      M_A    0.0000
    146 H          49.9431  130.9844   10.2130 H        20      M_A    0.0000
    147 H          49.4188  132.4979   10.9373 H        20      M_A    0.0000
    148 C          51.2502  132.7184   12.6248 C.3      21      M_A    0.0000
    149 C          51.0812  134.0722   11.9414 C.3      21      M_A    0.0000
    150 O          52.2645  134.8573   12.0867 O.3      21      M_A    0.0000
    151 H          50.4493  132.5911   13.3622 H        21      M_A    0.0000
    152 H          52.2045  132.6618   13.1592 H        21      M_A    0.0000
    153 H          50.8984  133.9493   10.8666 H        21      M_A    0.0000
    154 H          50.2025  134.5946   12.3463 H        21      M_A    0.0000
    155 C          51.9822  136.2392   12.0000 C.3      22      M_A    0.0000
    156 C          53.2503  137.0873   12.0310 C.3      22      M_A    0.0000
    157 O          53.0372  138.2787   12.7880 O.3      22      M_A    0.0000
    158 H          51.4594  136.4176   11.0534 H        22      M_A    0.0000
    159 H          51.3013  136.5165   12.8118 H        22      M_A    0.0000
    160 H          54.0763  136.5412   12.5035 H        22      M_A    0.0000
    161 H          53.5781  137.3174   11.0070 H        22      M_A    0.0000
    162 C          53.8251  139.3471   12.3037 C.3      23      M_A    0.0000
    163 C          54.0315  140.4317   13.3569 C.3      23      M_A    0.0000
    164 O          53.9975  141.7260   12.7557 O.3      23      M_A    0.0000
    165 H          54.8019  138.9419   12.0157 H        23      M_A    0.0000
    166 H          53.3572  139.7559   11.4017 H        23      M_A    0.0000
    167 H          53.2379  140.4000   14.1138 H        23      M_A    0.0000
    168 H          54.9766  140.2647   13.8934 H        23      M_A    0.0000
    169 C          55.1363  142.4875   13.1025 C.3      24      M_A    0.0000
    170 C          54.7682  143.8973   13.5552 C.3      24      M_A    0.0000
    171 O          55.1187  144.8521   12.5535 O.3      24      M_A    0.0000
    172 H          55.6479  141.9734   13.9243 H        24      M_A    0.0000
    173 H          55.8226  142.5128   12.2494 H        24      M_A    0.0000
    174 H          53.6883  143.9846   13.7287 H        24      M_A    0.0000
    175 H          55.2545  144.1270   14.5142 H        24      M_A    0.0000
    176 C          54.4893  146.0965   12.7823 C.3      25      M_A    0.0000
    177 C          55.3930  147.2719   12.4218 C.3      25      M_A    0.0000
    178 O          55.6738  148.0604   13.5781 O.3      25      M_A    0.0000
    179 H          53.5883  146.1379   12.1596 H        25      M_A    0.0000
    180 H          54.1712  146.1490   13.8290 H        25      M_A    0.0000
    181 H          56.3528  146.9210   12.0224 H        25      M_A    0.0000
    182 H          54.9309  147.8764   11.6281 H        25      M_A    0.0000
    183 C          56.8066  148.8819   13.3814 C.3      26      M_A    0.0000
    184 C          56.9586  149.9243   14.4852 C.3      26      M_A    0.0000
    185 O          57.2713  151.2010   13.9283 O.3      26      M_A    0.0000
    186 H          57.6934  148.2378   13.3774 H        26      M_A    0.0000
    187 H          56.7373  149.3562   12.3966 H        26      M_A    0.0000
    188 H          56.0264  150.0332   15.0534 H        26      M_A    0.0000
    189 H          57.7242  149.6043   15.2065 H        26      M_A    0.0000
    190 C          56.7262  152.2503   14.7019 C.3      27      M_A    0.0000
    191 C          57.5714  153.5184   14.6263 C.3      27      M_A    0.0000
    192 O          58.4446  153.6058   15.7523 O.3      27      M_A    0.0000
    193 H          55.7241  152.4686   14.3153 H        27      M_A    0.0000
    194 H          56.6150  151.9106   15.7371 H        27      M_A    0.0000
    195 H          58.1968  153.5202   13.7248 H        27      M_A    0.0000
    196 H          56.9227  154.4032   14.5537 H        27      M_A    0.0000
    197 C          59.2733  154.7479   15.6768 C.3      28      M_A    0.0000
    198 C          60.7092  154.4439   16.0936 C.3      28      M_A    0.0000
    199 O          61.1095  155.2952   17.1674 O.3      28      M_A    0.0000
    200 H          59.2720  155.0970   14.6378 H        28      M_A    0.0000
    201 H          58.8424  155.5434   16.2940 H        28      M_A    0.0000
    202 H          60.8059  153.4081   16.4421 H        28      M_A    0.0000
    203 H          61.3840  154.5437   15.2313 H        28      M_A    0.0000
    204 C          61.9996  154.6366   18.0454 C.3      29      M_A    0.0000
    205 C          62.6338  155.5971   19.0470 C.3      29      M_A    0.0000
    206 O          64.0046  155.2622   19.2627 O.3      29      M_A    0.0000
    207 H          61.4312  153.8767   18.5938 H        29      M_A    0.0000
    208 H          62.7638  154.1179   17.4568 H        29      M_A    0.0000
    209 H          62.6023  156.6290   18.6755 H        29      M_A    0.0000
    210 H          62.0676  155.5910   19.9895 H        29      M_A    0.0000
    211 C          64.6602  156.2424   20.0413 C.3      30      M_A    0.0000
    212 C          65.1454  155.6852   21.3763 C.3      30      M_A    0.0000
    213 O          64.6763  156.4928   22.4559 O.3      30      M_A    0.0000
    214 H          65.5249  156.6021   19.4719 H        30      M_A    0.0000
    215 H          63.9847  157.0917   20.1895 H        30      M_A    0.0000
    216 H          64.7668  154.6682   21.5381 H        30      M_A    0.0000
    217 H          66.2424  155.6105   21.3801 H        30      M_A    0.0000
    218 C          64.3729  157.8045   22.0267 C.3      31      M_A    0.0000
    219 C          65.4713  158.7975   22.3949 C.3      31      M_A    0.0000
    220 O          64.9241  160.1027   22.5814 O.3      31      M_A    0.0000
    221 H          64.2630  157.7854   20.9364 H        31      M_A    0.0000
    222 H          63.4093  158.1055   22.4515 H        31      M_A    0.0000
    223 H          65.9621  158.5099   23.3331 H        31      M_A    0.0000
    224 H          66.2554  158.7990   21.6241 H        31      M_A    0.0000
    225 C          65.9402  161.0712   22.7440 C.3      32      M_A    0.0000
    226 C          65.4032  162.4937   22.6167 C.3      32      M_A    0.0000
    227 O          66.3913  163.3527   22.0478 O.3      32      M_A    0.0000
    228 H          66.3712  160.9430   23.7435 H        32      M_A    0.0000
    229 H          66.7345  160.8817   22.0141 H        32      M_A    0.0000
    230 H          64.5243  162.5243   21.9608 H        32      M_A    0.0000
    231 H          65.0696  162.8625   23.5974 H        32      M_A    0.0000
    232 C          67.5657  163.3816   22.8332 C.3      33      M_A    0.0000
    233 C          68.7690  163.8954   22.0482 C.3      33      M_A    0.0000
    234 O          69.9382  163.1449   22.3763 O.3      33      M_A    0.0000
    235 H          67.3859  164.0491   23.6837 H        33      M_A    0.0000
    236 H          67.7531  162.3792   23.2328 H        33      M_A    0.0000
    237 H          68.6056  163.7934   20.9681 H        33      M_A    0.0000
    238 H          68.9161  164.9683   22.2383 H        33      M_A    0.0000
    239 C          71.0679  163.9822   22.5159 C.3      34      M_A    0.0000
    240 C          72.3189  163.3666   21.8960 C.3      34      M_A    0.0000
    241 O          73.4894  163.8202   22.5757 O.3      34      M_A    0.0000
    242 H          70.8502  164.9292   22.0088 H        34      M_A    0.0000
    243 H          71.2205  164.2026   23.5778 H        34      M_A    0.0000
    244 H          72.2974  162.2723   21.9731 H        34      M_A    0.0000
    245 H          72.3644  163.5995   20.8223 H        34      M_A    0.0000
    246 C          73.5211  165.2300   22.6665 C.3      35      M_A    0.0000
    247 C          74.9432  165.7781   22.5956 C.3      35      M_A    0.0000
    248 O          75.1970  166.6550   23.6931 O.3      35      M_A    0.0000
    249 H          72.9428  165.6348   21.8280 H        35      M_A    0.0000
    250 H          73.0238  165.5397   23.5919 H        35      M_A    0.0000
    251 H          75.6798  164.9665   22.6465 H        35      M_A    0.0000
    252 H          75.1074  166.2840   21.6333 H        35      M_A    0.0000
    253 C          76.1716  167.6245   23.3659 C.3      36      M_A    0.0000
    254 C          77.5814  167.0408   23.3564 C.3      36      M_A    0.0000
    255 O          78.4398  167.7919   24.2147 O.3      36      M_A    0.0000
    256 H          75.9409  168.0103   22.3663 H        36      M_A    0.0000
    257 H          76.0946  168.4603   24.0695 H        36      M_A    0.0000
    258 H          77.5799  166.0050   23.7180 H        36      M_A    0.0000
    259 H          77.9719  167.0086   22.3290 H        36      M_A    0.0000
    260 C          79.6764  168.0738   23.5916 C.3      37      M_A    0.0000
    261 C          80.7236  168.5615   24.5883 C.3      37      M_A    0.0000
    262 O          81.6081  169.4950   23.9685 O.3      37      M_A    0.0000
    263 H          80.0358  167.1505   23.1229 H        37      M_A    0.0000
    264 H          79.5160  168.8086   22.7954 H        37      M_A    0.0000
    265 H          80.2505  169.0709   25.4371 H        37      M_A    0.0000
    266 H          81.2741  167.7075   25.0087 H        37      M_A    0.0000
    267 C          82.9246  168.9874   23.8913 C.3      38      M_A    0.0000
    268 C          83.8489  169.6296   24.9215 C.3      38      M_A    0.0000
    269 O          85.1228  169.9131   24.3431 O.3      38      M_A    0.0000
    270 H          82.8811  167.9082   24.0779 H        38      M_A    0.0000
    271 H          83.3045  169.1327   22.8744 H        38      M_A    0.0000
    272 H          83.4340  170.5786   25.2836 H        38      M_A    0.0000
    273 H          83.9456  168.9789   25.8025 H        38      M_A    0.0000
    274 C          85.5295  168.8878   23.4598 C.3      39      M_A    0.0000
    275 C          86.9979  168.5178   23.6469 C.3      39      M_A    0.0000
    276 O          87.8418  169.4971   23.0413 O.3      39      M_A    0.0000
    277 H          84.9128  168.0046   23.6620 H        39      M_A    0.0000
    278 H          85.3293  169.2029   22.4302 H        39      M_A    0.0000
    279 H          87.2588  168.4725   24.7116 H        39      M_A    0.0000
    280 H          87.1917  167.5155   23.2386 H        39      M_A    0.0000
    281 C          88.1481  170.5432   23.9406 C.3      40      M_A    0.0000
    282 C          88.0752  171.9136   23.2735 C.3      40      M_A    0.0000
    283 O          89.0578  172.7909   23.8236 O.3      40      M_A    0.0000
    284 H          87.4200  170.5080   24.7590 H        40      M_A    0.0000
    285 H          89.1393  170.3655   24.3712 H        40      M_A    0.0000
    286 H          88.2695  171.8367   22.1964 H        40      M_A    0.0000
    287 H          87.0635  172.3319   23.3756 H        40      M_A    0.0000
    288 C          88.6195  173.3605   25.0402 C.3      41      M_A    0.0000
    289 C          89.3907  174.6296   25.3908 C.3      41      M_A    0.0000
    290 O          90.5818  174.3090   26.1093 O.3      41      M_A    0.0000
    291 H          87.5575  173.6093   24.9326 H        41      M_A    0.0000
    292 H          88.7055  172.6131   25.8362 H        41      M_A    0.0000
    293 H          89.6895  175.1704   24.4841 H        41      M_A    0.0000
    294 H          88.7509  175.3165   25.9633 H        41      M_A    0.0000
    295 C          91.6248  175.2148   25.8119 C.3      42      M_A    0.0000
    296 C          92.9405  174.4996   25.5196 C.3      42      M_A    0.0000
    297 O          94.0210  175.1434   26.1949 O.3      42      M_A    0.0000
    298 H          91.3296  175.7899   24.9268 H        42      M_A    0.0000
    299 H          91.7341  175.9194   26.6433 H        42      M_A    0.0000
    300 H          92.9080  173.4598   25.8683 H        42      M_A    0.0000
    301 H          93.1160  174.4561   24.4350 H        42      M_A    0.0000
    302 C          95.2580  174.5303   25.8935 C.3      43      M_A    0.0000
    303 C          96.3183  174.8272   26.9497 C.3      43      M_A    0.0000
    304 O          97.6112  174.9130   26.3506 O.3      43      M_A    0.0000
    305 H          95.0953  173.4473   25.8491 H        43      M_A    0.0000
    306 H          95.5863  174.8569   24.9011 H        43      M_A    0.0000
    307 H          96.1214  175.7863   27.4449 H        43      M_A    0.0000
    308 H          96.2932  174.0616   27.7385 H        43      M_A    0.0000
    309 C          98.5575  175.4699   27.2401 C.3      44      M_A    0.0000
    310 C          99.9471  174.8689   27.0503 C.3      44      M_A    0.0000
    311 O         100.4764  174.4272   28.3003 O.3      44      M_A    0.0000
    312 H          98.6080  176.5476   27.0470 H        44      M_A    0.0000
    313 H          98.2050  175.3338   28.2681 H        44      M_A    0.0000
    314 H          99.9106  173.9986   26.3831 H        44      M_A    0.0000
    315 H         100.6139  175.5989   26.5692 H        44      M_A    0.0000
    316 C         101.8702  174.2074   28.2231 C.3      45      M_A    0.0000
    317 C         102.2595  172.8145   28.7090 C.3      45      M_A    0.0000
    318 O         103.1614  172.9031   29.8120 O.3      45      M_A    0.0000
    319 H         102.1706  174.3140   27.1744 H        45      M_A    0.0000
    320 H         102.3868  174.9847   28.7962 H        45      M_A    0.0000
    321 H         101.3781  172.2568   29.0494 H        45      M_A    0.0000
    322 H         102.6934  172.2321   27.8835 H        45      M_A    0.0000
    323 C         104.1321  171.8769   29.7701 C.3      46      M_A    0.0000
    324 C         103.5904  170.5523   30.2993 C.3      46      M_A    0.0000
    325 O         104.5994  169.8549   31.0297 O.3      46      M_A    0.0000
    326 H         104.4367  171.7436   28.7258 H        46      M_A    0.0000
    327 H         105.0147  172.1967   30.3343 H        46      M_A    0.0000
    328 H         102.7465  170.7174   30.9807 H        46      M_A    0.0000
    329 H         103.2031  169.9424   29.4704 H        46      M_A    0.0000
    330 C         104.9197  168.6210   30.4200 C.3      47      M_A    0.0000
    331 C         104.9110  167.4677   31.4189 C.3      47      M_A    0.0000
    332 O         106.1237  166.7198   31.3303 O.3      47      M_A    0.0000
    333 H         104.1708  168.4239   29.6443 H        47      M_A    0.0000
    334 H         105.8932  168.7087   29.9258 H        47      M_A    0.0000
    335 H         104.8292  167.8400   32.4477 H        47      M_A    0.0000
    336 H         104.0331  166.8273   31.2515 H        47      M_A    0.0000
    337 C         106.2181  165.7630   32.3659 C.3      48      M_A    0.0000
    338 C         107.6460  165.2586   32.5532 C.3      48      M_A    0.0000
    339 O         107.8432  164.0381   31.8394 O.3      48      M_A    0.0000
    340 H         105.8854  166.2387   33.2955 H        48      M_A    0.0000
    341 H         105.5317  164.9366   32.1526 H        48      M_A    0.0000
    342 H         108.3726  165.9852   32.1686 H        48      M_A    0.0000
    343 H         107.8681  165.1365   33.6231 H        48      M_A    0.0000
    344 C         108.8162  163.2254   32.4637 C.3      49      M_A    0.0000
    345 C         110.0114  164.0361   32.9559 C.3      49      M_A    0.0000
    346 O         111.0379  164.0666   31.9644 O.3      49      M_A    0.0000
    347 H         108.3440  162.7332   33.3217 H        49      M_A    0.0000
    348 H         109.1301  162.4430   31.7646 H        49      M_A    0.0000
    349 H         109.7233  165.0743   33.1625 H        49      M_A    0.0000
    350 H         110.3842  163.6245   33.9049 H        49      M_A    0.0000
    351 C         112.2852  164.4277   32.5221 C.3      50      M_A    0.0000
    352 C         112.7884  165.7647   31.9861 C.3      50      M_A    0.0000
    353 O         114.2132  165.8248   32.0490 O.3      50      M_A    0.0000
    354 H         112.1587  164.5060   33.6080 H        50      M_A    0.0000
    355 H         113.0077  163.6274   32.3296 H        50      M_A    0.0000
    356 H         112.4999  165.9004   30.9363 H        50      M_A    0.0000
    357 H         112.3282  166.5940   32.5424 H        50      M_A    0.0000
    358 C         114.6970  165.3454   33.2872 C.3      51      M_A    0.0000
    359 C         114.7461  166.4415   34.3475 C.3      51      M_A    0.0000
    360 O         115.9128  166.3017   35.1582 O.3      51      M_A    0.0000
    361 H         114.0221  164.5521   33.6283 H        51      M_A    0.0000
    362 H         115.6848  164.8975   33.1356 H        51      M_A    0.0000
    363 H         114.7855  167.4350   33.8836 H        51      M_A    0.0000
    364 H         113.8310  166.4214   34.9568 H        51      M_A    0.0000
    365 C         115.7152  166.8459   36.4472 C.3      52      M_A    0.0000
    366 C         114.9167  168.1454   36.4055 C.3      52      M_A    0.0000
    367 O         115.3995  169.0613   37.3884 O.3      52      M_A    0.0000
    368 H         115.1634  166.1097   37.0429 H        52      M_A    0.0000
    369 H         116.6892  166.9956   36.9251 H        52      M_A    0.0000
    370 H         115.0115  168.6333   35.4274 H        52      M_A    0.0000
    371 H         113.8460  167.9376   36.5444 H        52      M_A    0.0000
    372 C         114.8119  168.8221   38.6511 C.3      53      M_A    0.0000
    373 C         114.5932  170.1121   39.4361 C.3      53      M_A    0.0000
    374 O         115.7872  170.4894   40.1216 O.3      53      M_A    0.0000
    375 H         113.8421  168.3391   38.4855 H        53      M_A    0.0000
    376 H         115.4401  168.1207   39.2105 H        53      M_A    0.0000
    377 H         114.3238  170.9383   38.7664 H        53      M_A    0.0000
    378 H         113.7519  169.9936   40.1341 H        53      M_A    0.0000
    379 C         115.5261  171.4497   41.1249 C.3      54      M_A    0.0000
    380 C         116.2027  172.7854   40.8311 C.3      54      M_A    0.0000
    381 O         117.3557  172.9545   41.6557 O.3      54      M_A    0.0000
    382 H         114.4419  171.6038   41.1700 H        54      M_A    0.0000
    383 H         115.8444  171.0500   42.0936 H        54      M_A    0.0000
    384 H         116.5354  172.8357   39.7869 H        54      M_A    0.0000
    385 H         115.4889  173.6105   40.9678 H        54      M_A    0.0000
    386 C         117.2131  174.0603   42.5238 C.3      55      M_A    0.0000
    387 C         118.4781  174.3187   43.3369 C.3      55      M_A    0.0000
    388 O         118.2153  174.1700   44.7322 O.3      55      M_A    0.0000
    389 H         116.9984  174.9438   41.9117 H        55      M_A    0.0000
    390 H         116.3504  173.8926   43.1774 H        55      M_A    0.0000
    391 H         119.2672  173.6035   43.0732 H        55      M_A    0.0000
    392 H         118.8779  175.3174   43.1096 H        55      M_A    0.0000
    393 C         119.2898  174.6494   45.5148 C.3      56      M_A    0.0000
    394 C         118.8722  174.9243   46.9564 C.3      56      M_A    0.0000
    395 O         119.0156  176.3110   47.2633 O.3      56      M_A    0.0000
    396 H         120.0754  173.8852   45.5128 H        56      M_A    0.0000
    397 H         119.7013  175.5487   45.0442 H        56      M_A    0.0000
    398 H         117.8198  174.6593   47.1176 H        56      M_A    0.0000
    399 H         119.4570  174.2994   47.6466 H        56      M_A    0.0000
    400 C         120.3026  176.7855   46.9236 C.3      57      M_A    0.0000
    401 C         120.8224  177.8069   47.9309 C.3      57      M_A    0.0000
    402 O         120.2870  179.1007   47.6534 O.3      57      M_A    0.0000
    403 H         120.9841  175.9273   46.9050 H        57      M_A    0.0000
    404 H         120.2728  177.2068   45.9130 H        57      M_A    0.0000
    405 H         120.5223  177.5392   48.9518 H        57      M_A    0.0000
    406 H         121.9218  177.8195   47.9256 H        57      M_A    0.0000
    407 C         120.6055  180.0225   48.6761 C.3      58      M_A    0.0000
    408 C         119.8586  179.7227   49.9723 C.3      58      M_A    0.0000
    409 O         118.8480  180.7035   50.2060 O.3      58      M_A    0.0000
    410 H         121.6833  179.9574   48.8647 H        58      M_A    0.0000
    411 H         120.3919  181.0367   48.3222 H        58      M_A    0.0000
    412 H         119.3626  178.7454   49.9226 H        58      M_A    0.0000
    413 H         120.5648  179.6680   50.8133 H        58      M_A    0.0000
    414 C         119.3941  181.8908   50.7437 C.3      59      M_A    0.0000
    415 C         118.3205  182.8010   51.3330 C.3      59      M_A    0.0000
    416 O         118.4661  184.1321   50.8382 O.3      59      M_A    0.0000
    417 H         120.0955  181.6098   51.5376 H        59      M_A    0.0000
    418 H         119.9652  182.4064   49.9643 H        59      M_A    0.0000
    419 H         117.3170  182.4552   51.0552 H        59      M_A    0.0000
    420 H         118.3627  182.7758   52.4314 H        59      M_A    0.0000
    421 C         117.3595  184.9380   51.1884 C.3      60      M_A    0.0000
    422 C         117.7884  186.3018   51.7216 C.3      60      M_A    0.0000
    423 O         116.8836  186.7521   52.7299 O.3      60      M_A    0.0000
    424 H         116.7511  185.0845   50.2887 H        60      M_A    0.0000
    425 H         116.7451  184.4029   51.9203 H        60      M_A    0.0000
    426 H         118.7861  186.2500   52.1750 H        60      M_A    0.0000
    427 H         117.8610  187.0258   50.8973 H        60      M_A    0.0000
    428 C         117.0650  186.0459   53.9403 C.3      61      M_A    0.0000
    429 C         116.0433  186.4496   54.9992 C.3      61      M_A    0.0000
    430 O         116.4966  187.5947   55.7211 O.3      61      M_A    0.0000
    431 H         116.9511  184.9769   53.7271 H        61      M_A    0.0000
    432 H         118.0881  186.2052   54.2971 H        61      M_A    0.0000
    433 H         115.0826  186.7109   54.5383 H        61      M_A    0.0000
    434 H         115.8424  185.6052   55.6741 H        61      M_A    0.0000
    435 C         115.7049  187.8300   56.8678 C.3      62      M_A    0.0000
    436 C         114.8765  189.1051   56.7417 C.3      62      M_A    0.0000
    437 O         114.8236  189.7931   57.9914 O.3      62      M_A    0.0000
    438 H         115.0271  186.9774   56.9900 H        62      M_A    0.0000
    439 H         116.3542  187.8659   57.7490 H        62      M_A    0.0000
    440 H         115.3195  189.7902   56.0081 H        62      M_A    0.0000
    441 H         113.8682  188.8678   56.3729 H        62      M_A    0.0000
    442 C         114.2872  191.0922   57.8444 C.3      63      M_A    0.0000
    443 C         113.6986  191.6214   59.1488 C.3      63      M_A    0.0000
    444 O         112.3620  192.0794   58.9453 O.3      63      M_A    0.0000
    445 H         115.0978  191.7574   57.5255 H        63      M_A    0.0000
    446 H         113.5357  191.0804   57.0477 H        63      M_A    0.0000
    447 H         113.6634  190.8336   59.9117 H        63      M_A    0.0000
    448 H         114.3366  192.4184   59.5572 H        63      M_A    0.0000
    449 C         111.9250  192.8919   60.0157 C.3      64      M_A    0.0000
    450 C         110.4919  193.3776   59.8200 C.3      64      M_A    0.0000
    451 O         110.3531  194.7236   60.2749 O.3      64      M_A    0.0000
    452 H         111.9750  192.2953   60.9338 H        64      M_A    0.0000
    453 H         112.6157  193.7342   60.1301 H        64      M_A    0.0000
    454 H         110.2124  193.3588   58.7592 H        64      M_A    0.0000
    455 H         109.7900  192.7067   60.3361 H        64      M_A    0.0000
    456 C         108.9949  195.0744   60.4456 C.3      65      M_A    0.0000
    457 C         108.8319  196.4874   60.9978 C.3      65      M_A    0.0000
    458 O         107.8092  196.5208   61.9933 O.3      65      M_A    0.0000
    459 H         108.5066  195.0180   59.4660 H        65      M_A    0.0000
    460 H         108.5147  194.3372   61.0979 H        65      M_A    0.0000
    461 H         109.7601  196.8343   61.4687 H        65      M_A    0.0000
    462 H         108.6181  197.1917   60.1810 H        65      M_A    0.0000
    463 C         107.7983  197.7545   62.6823 C.3      66      M_A    0.0000
    464 C         106.9558  197.6950   63.9530 C.3      66      M_A    0.0000
    465 O         106.6508  199.0113   64.4135 O.3      66      M_A    0.0000
    466 H         108.8319  197.9983   62.9532 H        66      M_A    0.0000
    467 H         107.4394  198.5381   62.0064 H        66      M_A    0.0000
    468 H         106.0034  197.1824   63.7689 H        66      M_A    0.0000
    469 H         107.4760  197.1114   64.7262 H        66      M_A    0.0000
    470 C         107.7226  199.5625   65.1513 C.3      67      M_A    0.0000
    471 C         107.9421  198.8358   66.4749 C.3      67      M_A    0.0000
    472 O         108.0446  199.7712   67.5484 O.3      67      M_A    0.0000
    473 H         108.6305  199.4745   64.5437 H        67      M_A    0.0000
    474 H         107.5341  200.6293   65.3126 H        67      M_A    0.0000
    475 H         107.1012  198.1680   66.7002 H        67      M_A    0.0000
    476 H         108.8354  198.1976   66.4138 H        67      M_A    0.0000
    477 C         108.5997  199.1746   68.7029 C.3      68      M_A    0.0000
    478 C         108.1406  199.8657   69.9834 C.3      68      M_A    0.0000
    479 O         109.2109  199.9364   70.9254 O.3      68      M_A    0.0000
    480 H         108.2766  198.1276   68.7297 H        68      M_A    0.0000
    481 H         109.6917  199.1823   68.6193 H        68      M_A    0.0000
    482 H         107.8139  200.8931   69.7797 H        68      M_A    0.0000
    483 H         107.2702  199.3430   70.4057 H        68      M_A    0.0000
    484 C         108.7416  200.2613   72.2181 C.3      69      M_A    0.0000
    485 C         107.8335  201.4874   72.2078 C.3      69      M_A    0.0000
    486 O         108.3434  202.4952   73.0809 O.3      69      M_A    0.0000
    487 H         108.1744  199.4031   72.5963 H        69      M_A    0.0000
    488 H         109.5993  200.4103   72.8826 H        69      M_A    0.0000
    489 H         107.7736  201.9232   71.2027 H        69      M_A    0.0000
    490 H         106.8077  201.2022   72.4823 H        69      M_A    0.0000
    491 C         107.9551  203.7876   72.6614 C.3      70      M_A    0.0000
    492 C         107.7132  204.7254   73.8404 C.3      70      M_A    0.0000
    493 O         106.5057  205.4634   73.6533 O.3      70      M_A    0.0000
    494 H         108.7614  204.1972   72.0421 H        70      M_A    0.0000
    495 H         107.0628  203.7059   72.0317 H        70      M_A    0.0000
    496 H         107.6119  204.1615   74.7762 H        70      M_A    0.0000
    497 H         108.5745  205.3954   73.9754 H        70      M_A    0.0000
    498 C         105.8918  205.7724   74.8880 C.3      71      M_A    0.0000
    499 C         104.8029  206.8308   74.7388 C.3      71      M_A    0.0000
    500 O         105.1416  208.0049   75.4769 O.3      71      M_A    0.0000
    501 H         105.4414  204.8532   75.2798 H        71      M_A    0.0000
    502 H         106.6605  206.0937   75.5988 H        71      M_A    0.0000
    503 H         104.6835  207.1259   73.6889 H        71      M_A    0.0000
    504 H         103.8323  206.4243   75.0576 H        71      M_A    0.0000
    505 C         105.1505  207.7567   76.8680 C.3      72      M_A    0.0000
    506 C         104.5970  208.9343   77.6648 C.3      72      M_A    0.0000
    507 O         105.5216  209.3325   78.6770 O.3      72      M_A    0.0000
    508 H         104.5262  206.8759   77.0571 H        72      M_A    0.0000
    509 H         106.1713  207.5126   77.1809 H        72      M_A    0.0000
    510 H         104.4268  209.8023   77.0156 H        72      M_A    0.0000
    511 H         103.6194  208.6748   78.0959 H        72      M_A    0.0000
    512 C         105.3713  208.5570   79.8487 C.3      73      M_A    0.0000
    513 C         106.1289  209.1520   81.0320 C.3      73      M_A    0.0000
    514 O         107.4987  208.7515   81.0018 O.3      73      M_A    0.0000
    515 H         104.3036  208.5200   80.0937 H        73      M_A    0.0000
    516 H         105.6998  207.5325   79.6438 H        73      M_A    0.0000
    517 H         106.1065  210.2485   81.0013 H        73      M_A    0.0000
    518 H         105.6476  208.8597   81.9764 H        73      M_A    0.0000
    519 C         108.3338  209.7983   80.5503 C.3      74      M_A    0.0000
    520 C         109.8122  209.4846   80.7602 C.3      74      M_A    0.0000
    521 O         110.5188  210.6551   81.1707 O.3      74      M_A    0.0000
    522 H         108.1496  209.9381   79.4790 H        74      M_A    0.0000
    523 H         108.0504  210.7260   81.0589 H        74      M_A    0.0000
    524 H         109.9456  208.7286   81.5441 H        74      M_A    0.0000
    525 H         110.2435  209.0580   79.8432 H        74      M_A    0.0000
    526 C         111.4528  211.0649   80.1926 C.3      75      M_A    0.0000
    527 C         112.6511  211.7817   80.8077 C.3      75      M_A    0.0000
    528 O         112.4951  213.1969   80.7042 O.3      75      M_A    0.0000
    529 H         111.8060  210.1698   79.6679 H        75      M_A    0.0000
    530 H         110.9460  211.7006   79.4587 H        75      M_A    0.0000
    531 H         112.7491  211.5391   81.8732 H        75      M_A    0.0000
    532 H         113.5816  211.4458   80.3278 H        75      M_A    0.0000
    533 C         113.2136  213.8718   81.7167 C.3      76      M_A    0.0000
    534 C         113.8731  215.1470   81.1999 C.3      76      M_A    0.0000
    535 O         115.2053  215.2596   81.7003 O.3      76      M_A    0.0000
    536 H         112.5074  214.1353   82.5124 H        76      M_A    0.0000
    537 H         113.9550  213.1888   82.1446 H        76      M_A    0.0000
    538 H         113.9331  215.1417   80.1043 H        76      M_A    0.0000
    539 H         113.2683  216.0241   81.4717 H        76      M_A    0.0000
    540 C         115.7065  216.5719   81.5462 C.3      77      M_A    0.0000
    541 C         117.2119  216.5861   81.2980 C.3      77      M_A    0.0000
    542 O         117.8572  217.4977   82.1871 O.3      77      M_A    0.0000
    543 H         115.2010  217.0268   80.6867 H        77      M_A    0.0000
    544 H         115.4465  217.1600   82.4328 H        77      M_A    0.0000
    545 H         117.6477  215.5942   81.4712 H        77      M_A    0.0000
    546 H         117.4210  216.8360   80.2479 H        77      M_A    0.0000
    547 C         119.0074  218.0685   81.5973 C.3      78      M_A    0.0000
    548 C         119.9242  218.7125   82.6331 C.3      78      M_A    0.0000
    549 O         120.5640  219.8659   82.0870 O.3      78      M_A    0.0000
    550 H         119.5562  217.2691   81.0863 H        78      M_A    0.0000
    551 H         118.6969  218.7946   80.8384 H        78      M_A    0.0000
    552 H         119.3550  219.0382   83.5127 H        78      M_A    0.0000
    553 H         120.6605  217.9807   82.9954 H        78      M_A    0.0000
    554 C         121.6689  220.2650   82.8724 C.3      79      M_A    0.0000
    555 C         121.6704  221.7672   83.1399 C.3      79      M_A    0.0000
    556 O         122.3565  222.4605   82.0975 O.3      79      M_A    0.0000
    557 H         121.6111  219.7345   83.8297 H        79      M_A    0.0000
    558 H         122.5928  219.9512   82.3750 H        79      M_A    0.0000
    559 H         120.6467  222.1603   83.1775 H        79      M_A    0.0000
    560 H         122.1180  221.9774   84.1219 H        79      M_A    0.0000
    561 C         122.0923  223.8481   82.1383 C.3      80      M_A    0.0000
    562 C         122.2123  224.4961   80.7621 C.3      80      M_A    0.0000
    563 O         123.3446  225.3643   80.7148 O.3      80      M_A    0.0000
    564 H         121.0693  223.9857   82.5069 H        80      M_A    0.0000
    565 H         122.7699  224.3199   82.8578 H        80      M_A    0.0000
    566 H         122.3474  223.7372   79.9813 H        80      M_A    0.0000
    567 H         121.2858  225.0334   80.5134 H        80      M_A    0.0000
    568 C         123.6588  225.7325   79.3872 C.3      81      M_A    0.0000
    569 C         124.9177  226.5914   79.3123 C.3      81      M_A    0.0000
    570 O         124.5935  227.9202   78.9039 O.3      81      M_A    0.0000
    571 H         123.8216  224.8138   78.8121 H        81      M_A    0.0000
    572 H         122.8000  226.2507   78.9473 H        81      M_A    0.0000
    573 H         125.4058  226.6588   80.2925 H        81      M_A    0.0000
    574 H         125.6506  226.1320   78.6334 H        81      M_A    0.0000
    575 C         125.2598  228.8820   79.6964 C.3      82      M_A    0.0000
    576 C         126.5290  229.3989   79.0256 C.3      82      M_A    0.0000
    577 O         127.6603  229.1976   79.8725 O.3      82      M_A    0.0000
    578 H         124.5743  229.7225   79.8536 H        82      M_A    0.0000
    579 H         125.4802  228.4465   80.6768 H        82      M_A    0.0000
    580 H         126.7223  228.8650   78.0868 H        82      M_A    0.0000
    581 H         126.4126  230.4594   78.7592 H        82      M_A    0.0000
    582 C         128.1092  230.4142   80.4340 C.3      83      M_A    0.0000
    583 C         128.9322  230.1933   81.6997 C.3      83      M_A    0.0000
    584 O         128.8101  231.3122   82.5777 O.3      83      M_A    0.0000
    585 H         128.7340  230.9192   79.6884 H        83      M_A    0.0000
    586 H         127.2447  231.0569   80.6317 H        83      M_A    0.0000
    587 H         128.5831  229.3078   82.2454 H        83      M_A    0.0000
    588 H         129.9833  230.0015   81.4402 H        83      M_A    0.0000
    589 C         129.2466  232.5053   81.9590 C.3      84      M_A    0.0000
    590 C         130.6945  232.8367   82.3082 C.3      84      M_A    0.0000
    591 O         130.7688  234.0787   83.0079 O.3      84      M_A    0.0000
    592 H         129.1652  232.3717   80.8742 H        84      M_A    0.0000
    593 H         128.5745  233.3219   82.2434 H        84      M_A    0.0000
    594 H         131.1275  232.0667   82.9587 H        84      M_A    0.0000
    595 H         131.3102  232.8534   81.3974 H        84      M_A    0.0000
    596 C         132.1091  234.4718   83.2229 C.3      85      M_A    0.0000
    597 C         132.2275  235.9604   83.5365 C.3      85      M_A    0.0000
    598 O         133.3057  236.5420   82.8036 O.3      85      M_A    0.0000
    599 H         132.4962  233.8985   84.0730 H        85      M_A    0.0000
    600 H         132.7053  234.2043   82.3440 H        85      M_A    0.0000
    601 H         131.3121  236.4951   83.2539 H        85      M_A    0.0000
    602 H         132.3519  236.1116   84.6184 H        85      M_A    0.0000
    603 C         134.5525  236.0210   83.2169 C.3      86      M_A    0.0000
    604 C         134.8422  236.3215   84.6845 C.3      86      M_A    0.0000
    605 O         135.4248  237.6172   84.8245 O.3      86      M_A    0.0000
    606 H         134.5272  234.9344   83.0759 H        86      M_A    0.0000
    607 H         135.3395  236.4208   82.5687 H        86      M_A    0.0000
    608 H         133.9189  236.3107   85.2772 H        86      M_A    0.0000
    609 H         135.4915  235.5430   85.1103 H        86      M_A    0.0000
    610 C         134.4568  238.6373   84.6856 C.3      87      M_A    0.0000
    611 C         134.9399  239.7680   83.7820 C.3      87      M_A    0.0000
    612 O         135.2708  240.9207   84.5563 O.3      87      M_A    0.0000
    613 H         133.5578  238.1911   84.2452 H        87      M_A    0.0000
    614 H         134.1879  239.0124   85.6788 H        87      M_A    0.0000
    615 H         135.8415  239.4723   83.2312 H        87      M_A    0.0000
    616 H         134.1776  240.0004   83.0245 H        87      M_A    0.0000
    617 C         135.3687  242.0759   83.7482 C.3      88      M_A    0.0000
    618 C         136.8120  242.5443   83.5887 C.3      88      M_A    0.0000
    619 O         136.9249  243.9329   83.9000 O.3      88      M_A    0.0000
    620 H         134.9641  241.8307   82.7595 H        88      M_A    0.0000
    621 H         134.7418  242.8655   84.1761 H        88      M_A    0.0000
    622 H         137.4789  241.9999   84.2689 H        88      M_A    0.0000
    623 H         137.1695  242.3324   82.5707 H        88      M_A    0.0000
    624 C         135.8062  244.6599   83.4342 C.3      89      M_A    0.0000
    625 C         136.2133  245.9494   82.7274 C.3      89      M_A    0.0000
    626 O         135.6515  247.0822   83.3901 O.3      89      M_A    0.0000
    627 H         135.2621  244.0242   82.7264 H        89      M_A    0.0000
    628 H         135.1374  244.8652   84.2768 H        89      M_A    0.0000
    629 H         137.3035  246.0729   82.7330 H        89      M_A    0.0000
    630 H         135.9120  245.9144   81.6706 H        89      M_A    0.0000
    631 C         135.7012  248.2355   82.5750 C.3      90      M_A    0.0000
    632 C         136.4125  249.3958   83.2649 C.3      90      M_A    0.0000
    633 O         135.5102  250.4818   83.4755 O.3      90      M_A    0.0000
    634 H         136.2474  247.9783   81.6603 H        90      M_A    0.0000
    635 H         134.6820  248.5126   82.2854 H        90      M_A    0.0000
    636 H         136.7967  249.0928   84.2469 H        90      M_A    0.0000
    637 H         137.2857  249.7101   82.6753 H        90      M_A    0.0000
    638 C         135.9496  251.3239   84.5217 C.3      91      M_A    0.0000
    639 C         134.9206  252.3967   84.8658 C.3      91      M_A    0.0000
    640 O         135.0960  253.5436   84.0340 O.3      91      M_A    0.0000
    641 H         136.1211  250.7004   85.4067 H        91      M_A    0.0000
    642 H         136.9088  251.7717   84.2411 H        91      M_A    0.0000
    643 H         133.8999  252.0276   84.7054 H        91      M_A    0.0000
    644 H         134.9895  252.6609   85.9309 H        91      M_A    0.0000
    645 C         134.2867  253.4725   82.8778 C.3      92      M_A    0.0000
    646 C         134.6203  254.5732   81.8751 C.3      92      M_A    0.0000
    647 O         133.8786  254.3927   80.6687 O.3      92      M_A    0.0000
    648 H         134.4586  252.4986   82.4055 H        92      M_A    0.0000
    649 H         133.2336  253.5150   83.1756 H        92      M_A    0.0000
    650 H         134.3606  255.5610   82.2756 H        92      M_A    0.0000
    651 H         135.7021  254.5937   81.6800 H        92      M_A    0.0000
    652 C         133.6957  255.6163   79.9860 C.3      93      M_A    0.0000
    653 C         134.4872  255.6704   78.6826 C.3      93      M_A    0.0000
    654 O         135.7150  256.3738   78.8715 O.3      93      M_A    0.0000
    655 H         132.6287  255.7185   79.7573 H        93      M_A    0.0000
    656 H         133.9725  256.4413   80.6510 H        93      M_A    0.0000
    657 H         134.7373  254.6609   78.3330 H        93      M_A    0.0000
    658 H         133.8808  256.1304   77.8892 H        93      M_A    0.0000
    659 C         136.2888  256.7534   77.6371 C.3      94      M_A    0.0000
    660 C         137.7198  257.2571   77.7999 C.3      94      M_A    0.0000
    661 O         137.7281  258.6530   78.0987 O.3      94      M_A    0.0000
    662 H         136.2948  255.8736   76.9836 H        94      M_A    0.0000
    663 H         135.6540  257.5115   77.1661 H        94      M_A    0.0000
    664 H         138.2260  256.7414   78.6256 H        94      M_A    0.0000
    665 H         138.3044  257.0384   76.8948 H        94      M_A    0.0000
    666 C         138.6658  258.9598   79.1104 C.3      95      M_A    0.0000
    667 C         138.4107  260.3290   79.7336 C.3      95      M_A    0.0000
    668 O         139.1022  261.3457   79.0082 O.3      95      M_A    0.0000
    669 H         138.5827  258.1942   79.8903 H        95      M_A    0.0000
    670 H         139.6761  258.8979   78.6919 H        95      M_A    0.0000
    671 H         137.3424  260.5779   79.7105 H        95      M_A    0.0000
    672 H         138.7037  260.3242   80.7933 H        95      M_A    0.0000
    673 C         138.7263  262.6369   79.4420 C.3      96      M_A    0.0000
    674 C         138.3401  263.5440   78.2774 C.3      96      M_A    0.0000
    675 O         139.3870  264.4734   77.9983 O.3      96      M_A    0.0000
    676 H         137.8637  262.5303   80.1096 H        96      M_A    0.0000
    677 H         139.5454  263.0703   80.0258 H        96      M_A    0.0000
    678 H         138.1677  262.9595   77.3650 H        96      M_A    0.0000
    679 H         137.3945  264.0607   78.4962 H        96      M_A    0.0000
    680 C         139.3426  265.5811   78.8746 C.3      97      M_A    0.0000
    681 C         139.3180  266.9081   78.1218 C.3      97      M_A    0.0000
    682 O         140.2391  267.8306   78.7034 O.3      97      M_A    0.0000
    683 H         138.4306  265.4980   79.4767 H        97      M_A    0.0000
    684 H         140.1967  265.5302   79.5583 H        97      M_A    0.0000
    685 H         139.6093  266.7699   77.0731 H        97      M_A    0.0000
    686 H         138.2975  267.3172   78.1075 H        97      M_A    0.0000
    687 C         140.1864  269.0883   78.0614 C.3      98      M_A    0.0000
    688 C         139.8105  270.2098   79.0254 C.3      98      M_A    0.0000
    689 O         139.1176  271.2506   78.3365 O.3      98      M_A    0.0000
    690 H         141.1788  269.2962   77.6454 H        98      M_A    0.0000
    691 H         139.4815  269.0333   77.2249 H        98      M_A    0.0000
    692 H         139.1463  269.8409   79.8169 H        98      M_A    0.0000
    693 H         140.7088  270.5934   79.5301 H        98      M_A    0.0000
    694 C         140.0146  272.1202   77.6763 C.3      99      M_A    0.0000
    695 C         139.3827  273.4758   77.3742 C.3      99      M_A    0.0000
    696 O         140.0538  274.1093   76.2851 O.3      99      M_A    0.0000
    697 H         140.8810  272.2708   78.3304 H        99      M_A    0.0000
    698 H         140.3713  271.6374   76.7601 H        99      M_A    0.0000
    699 H         138.3290  273.3631   77.0901 H        99      M_A    0.0000
    700 H         139.3941  274.1085   78.2734 H        99      M_A    0.0000
    701 C         141.1920  274.8228   76.7235 C.3     100      M_A    0.0000
    702 C         141.7112  275.7854   75.6596 C.3     100      M_A    0.0000
    703 O         142.7803  275.1898   74.9246 O.3     100      M_A    0.0000
    704 H         140.9079  275.3969   77.6128 H       100      M_A    0.0000
    705 H         141.9672  274.1096   77.0234 H       100      M_A    0.0000
    706 H         140.9214  276.0405   74.9420 H       100      M_A    0.0000
    707 H         142.0237  276.7318   76.1241 H       100      M_A    0.0000
    708 C         142.5579  275.2701   73.5315 C.3     101      M_A    0.0000
    709 C         143.5414  276.2144   72.8465 C.3     101      M_A    0.0000
    710 O         143.0080  276.6792   71.6066 O.3     101      M_A    0.0000
    711 H         142.6808  274.2650   73.1122 H       101      M_A    0.0000
    712 H         141.5227  275.5794   73.3521 H       101      M_A    0.0000
    713 H         143.7389  277.0953   73.4700 H       101      M_A    0.0000
    714 H         144.5101  275.7144   72.7028 H       101      M_A    0.0000
    715 C         143.9658  276.6027   70.5704 C.3     102      M_A    0.0000
    716 C         143.6428  275.4962   69.5706 C.3     102      M_A    0.0000
    717 O         144.8435  274.9287   69.0470 O.3     102      M_A    0.0000
    718 H         143.9716  277.5646   70.0452 H       102      M_A    0.0000
    719 H         144.9583  276.4599   71.0111 H       102      M_A    0.0000
    720 H         143.0785  274.6865   70.0499 H       102      M_A    0.0000
    721 H         143.0013  275.8862   68.7673 H       102      M_A    0.0000
    722 C         145.7555  275.9298   68.6432 C.3     103      M_A    0.0000
    723 C         146.6395  275.4690   67.4881 C.3     103      M_A    0.0000
    724 O         148.0136  275.7292   67.7747 O.3     103      M_A    0.0000
    725 H         145.1766  276.8027   68.3202 H       103      M_A    0.0000
    726 H         146.3584  276.2329   69.5058 H       103      M_A    0.0000
    727 H         146.5374  274.3892   67.3221 H       103      M_A    0.0000
    728 H         146.3269  275.9559   66.5532 H       103      M_A    0.0000
    729 C         148.8670  274.9012   67.0113 C.3     104      M_A    0.0000
    730 C         149.9246  275.7043   66.2598 C.3     104      M_A    0.0000
    731 O         150.0017  275.2802   64.8989 O.3     104      M_A    0.0000
    732 H         149.3686  274.2099   67.6982 H       104      M_A    0.0000
    733 H         148.2617  274.3026   66.3223 H       104      M_A    0.0000
    734 H         149.6774  276.7733   66.2573 H       104      M_A    0.0000
    735 H         150.8982  275.6137   66.7627 H       104      M_A    0.0000
    736 C         150.8389  276.1283   64.1395 C.3     105      M_A    0.0000
    737 C         150.3581  276.2689   62.6982 C.3     105      M_A    0.0000
    738 O         151.4618  276.4993   61.8227 O.3     105      M_A    0.0000
    739 H         150.8351  277.1170   64.6125 H       105      M_A    0.0000
    740 H         151.8646  275.7463   64.1786 H       105      M_A    0.0000
    741 H         149.8566  275.3533   62.3606 H       105      M_A    0.0000
    742 H         149.6134  277.0743   62.6234 H       105      M_A    0.0000
    743 C         151.1909  277.5466   60.9134 C.3     106      M_A    0.0000
    744 C         149.8883  277.3223   60.1511 C.3     106      M_A    0.0000
    745 O         150.1572  276.9474   58.8002 O.3     106      M_A    0.0000
    746 H         151.1107  278.4777   61.4860 H       106      M_A    0.0000
    747 H         152.0376  277.6518   60.2269 H       106      M_A    0.0000
    748 H         149.3015  276.5143   60.6056 H       106      M_A    0.0000
    749 H         149.2608  278.2239   60.1985 H       106      M_A    0.0000
    750 C         151.3881  276.2622   58.6888 C.3     107      M_A    0.0000
    751 C         151.8365  276.1195   57.2373 C.3     107      M_A    0.0000
    752 O         151.4789  274.8351   56.7270 O.3     107      M_A    0.0000
    753 H         152.1436  276.8351   59.2386 H       107      M_A    0.0000
    754 H         151.2975  275.2838   59.1725 H       107      M_A    0.0000
    755 H         151.3533  276.8718   56.6014 H       107      M_A    0.0000
    756 H         152.9187  276.2952   57.1554 H       107      M_A    0.0000
    757 C         152.1820  274.5370   55.5381 C.3     108      M_A    0.0000
    758 C         151.2464  274.3698   54.3444 C.3     108      M_A    0.0000
    759 O         151.6754  273.2860   53.5203 O.3     108      M_A    0.0000
    760 H         152.8696  275.3663   55.3362 H       108      M_A    0.0000
    761 H         152.7858  273.6370   55.6962 H       108      M_A    0.0000
    762 H         150.2243  274.1466   54.6750 H       108      M_A    0.0000
    763 H         151.1883  275.3077   53.7735 H       108      M_A    0.0000
    764 C         153.0188  273.4465   53.1127 C.3     109      M_A    0.0000
    765 C         153.2026  273.1774   51.6220 C.3     109      M_A    0.0000
    766 O         154.4725  272.5738   51.3753 O.3     109      M_A    0.0000
    767 H         153.3143  274.4803   53.3254 H       109      M_A    0.0000
    768 H         153.6558  272.7895   53.7144 H       109      M_A    0.0000
    769 H         152.4337  272.4890   51.2497 H       109      M_A    0.0000
    770 H         153.0852  274.1095   51.0508 H       109      M_A    0.0000
    771 C         155.4229  273.5264   50.9437 C.3     110      M_A    0.0000
    772 C         156.8459  272.9772   50.9851 C.3     110      M_A    0.0000
    773 O         157.6887  273.8290   51.7609 O.3     110      M_A    0.0000
    774 H         155.1790  273.8018   49.9113 H       110      M_A    0.0000
    775 H         155.3292  274.4282   51.5580 H       110      M_A    0.0000
    776 H         156.8694  271.9824   51.4474 H       110      M_A    0.0000
    777 H         157.2343  272.8524   49.9641 H       110      M_A    0.0000
    778 C         159.0500  273.6559   51.4235 C.3     111      M_A    0.0000
    779 C         159.8031  272.8448   52.4738 C.3     111      M_A    0.0000
    780 O         161.1608  273.2773   52.5614 O.3     111      M_A    0.0000
    781 H         159.0950  273.1247   50.4660 H       111      M_A    0.0000
    782 H         159.5101  274.6392   51.2787 H       111      M_A    0.0000
    783 H         159.3528  272.9731   53.4661 H       111      M_A    0.0000
    784 H         159.7394  271.7719   52.2422 H       111      M_A    0.0000
    785 C         161.9151  272.8419   51.4487 C.3     112      M_A    0.0000
    786 C         163.3977  272.7000   51.7802 C.3     112      M_A    0.0000
    787 O         164.1979  273.3012   50.7623 O.3     112      M_A    0.0000
    788 H         161.5260  271.8652   51.1391 H       112      M_A    0.0000
    789 H         161.7608  273.5384   50.6177 H       112      M_A    0.0000
    790 H         163.6382  273.2013   52.7260 H       112      M_A    0.0000
    791 H         163.6560  271.6402   51.9180 H       112      M_A    0.0000
    792 C         165.4236  272.6176   50.5967 C.3     113      M_A    0.0000
    793 C         166.6246  273.5443   50.7614 C.3     113      M_A    0.0000
    794 O         167.6462  273.2113   49.8216 O.3     113      M_A    0.0000
    795 H         165.4760  271.8306   51.3577 H       113      M_A    0.0000
    796 H         165.4315  272.1308   49.6156 H       113      M_A    0.0000
    797 H         166.3416  274.5892   50.5826 H       113      M_A    0.0000
    798 H         167.0005  273.4985   51.7936 H       113      M_A    0.0000
    799 C         167.6391  271.8314   49.5171 C.3     114      M_A    0.0000
    800 C         169.0107  271.1929   49.7145 C.3     114      M_A    0.0000
    801 O         169.7987  271.3239   48.5314 O.3     114      M_A    0.0000
    802 H         166.9210  271.3426   50.1854 H       114      M_A    0.0000
    803 H         167.2830  271.6938   48.4906 H       114      M_A    0.0000
    804 H         169.5581  271.6825   50.5297 H       114      M_A    0.0000
    805 H         168.9001  270.1386   50.0065 H       114      M_A    0.0000
    806 C         171.0941  270.7885   48.7108 C.3     115      M_A    0.0000
    807 C         172.1824  271.7479   48.2381 C.3     115      M_A    0.0000
    808 O         173.0737  271.0894   47.3381 O.3     115      M_A    0.0000
    809 H         171.2332  270.5939   49.7804 H       115      M_A    0.0000
    810 H         171.1594  269.8283   48.1882 H       115      M_A    0.0000
    811 H         171.7478  272.6020   47.7038 H       115      M_A    0.0000
    812 H         172.7214  272.1652   49.1008 H       115      M_A    0.0000
    813 C         173.5792  269.8926   47.8940 C.3     116      M_A    0.0000
    814 C         174.8350  269.4106   47.1738 C.3     116      M_A    0.0000
    815 O         174.4894  268.5652   46.0766 O.3     116      M_A    0.0000
    816 H         173.8252  270.0865   48.9443 H       116      M_A    0.0000
    817 H         172.7940  269.1294   47.8731 H       116      M_A    0.0000
    818 H         175.4050  270.2566   46.7697 H       116      M_A    0.0000
    819 H         175.5036  268.8968   47.8794 H       116      M_A    0.0000
    820 C         175.6041  267.8242   45.6235 C.3     117      M_A    0.0000
    821 C         176.1382  268.3464   44.2930 C.3     117      M_A    0.0000
    822 O         175.8089  267.4475   43.2341 O.3     117      M_A    0.0000
    823 H         176.3934  267.9068   46.3794 H       117      M_A    0.0000
    824 H         175.3249  266.7678   45.5502 H       117      M_A    0.0000
    825 H         175.6956  269.3198   44.0472 H       117      M_A    0.0000
    826 H         177.2239  268.5082   44.3572 H       117      M_A    0.0000
    827 C         174.4101  267.3209   43.0792 C.3     118      M_A    0.0000
    828 C         174.0387  266.5925   41.7909 C.3     118      M_A    0.0000
    829 O         174.0698  267.4904   40.6816 O.3     118      M_A    0.0000
    830 H         174.0269  266.7496   43.9325 H       118      M_A    0.0000
    831 H         173.9549  268.3163   43.1159 H       118      M_A    0.0000
    832 H         174.7486  265.7834   41.5787 H       118      M_A    0.0000
    833 H         173.0520  266.1184   41.8940 H       118      M_A    0.0000
    834 C         174.5726  266.8609   39.5206 C.3     119      M_A    0.0000
    835 C         175.0824  267.8697   38.4955 C.3     119      M_A    0.0000
    836 O         174.6086  267.5394   37.1900 O.3     119      M_A    0.0000
    837 H         175.4025  266.2115   39.8219 H       119      M_A    0.0000
    838 H         173.7915  266.2233   39.0931 H       119      M_A    0.0000
    839 H         174.7254  268.8806   38.7285 H       119      M_A    0.0000
    840 H         176.1806  267.9162   38.5224 H       119      M_A    0.0000
    841 C         174.9131  268.5560   36.2568 C.3     120      M_A    0.0000
    842 C         174.3393  268.2574   34.8749 C.3     120      M_A    0.0000
    843 O         175.1491  267.2997   34.1929 O.3     120      M_A    0.0000
    844 H         174.4800  269.4928   36.6256 H       120      M_A    0.0000
    845 H         175.9995  268.6877   36.2137 H       120      M_A    0.0000
    846 H         173.3285  267.8375   34.9518 H       120      M_A    0.0000
    847 H         174.2442  269.1864   34.2945 H       120      M_A    0.0000
    848 C         175.0306  266.0161   34.7720 C.3     121      M_A    0.0000
    849 C         175.1917  264.9037   33.7402 C.3     121      M_A    0.0000
    850 O         173.9544  264.2189   33.5453 O.3     121      M_A    0.0000
    851 H         175.8167  265.9141   35.5290 H       121      M_A    0.0000
    852 H         174.0656  265.9431   35.2847 H       121      M_A    0.0000
    853 H         175.4985  265.3108   32.7686 H       121      M_A    0.0000
    854 H         175.9875  264.2111   34.0500 H       121      M_A    0.0000
    855 C         174.1619  262.8796   33.1451 C.3     122      M_A    0.0000
    856 C         175.3025  262.7510   32.1398 C.3     122      M_A    0.0000
    857 O         174.8241  262.9580   30.8109 O.3     122      M_A    0.0000
    858 H         174.4093  262.2953   34.0388 H       122      M_A    0.0000
    859 H         173.2277  262.4800   32.7363 H       122      M_A    0.0000
    860 H         176.0798  263.5017   32.3298 H       122      M_A    0.0000
    861 H         175.7891  261.7702   32.2414 H       122      M_A    0.0000
    862 C         175.7150  262.4258   29.8517 C.3     123      M_A    0.0000
    863 C         177.1528  262.8769   30.0911 C.3     123      M_A    0.0000
    864 O         177.7688  263.2590   28.8613 O.3     123      M_A    0.0000
    865 H         175.6702  261.3329   29.9200 H       123      M_A    0.0000
    866 H         175.3732  262.7094   28.8505 H       123      M_A    0.0000
    867 H         177.1853  263.7468   30.7590 H       123      M_A    0.0000
    868 H         177.7217  262.0810   30.5929 H       123      M_A    0.0000
    869 C         179.1386  262.9126   28.8394 C.3     124      M_A    0.0000
    870 C         179.8177  263.3380   27.5409 C.3     124      M_A    0.0000
    871 O         180.8303  262.4005   27.1753 O.3     124      M_A    0.0000
    872 H         179.6280  263.4205   29.6783 H       124      M_A    0.0000
    873 H         179.2371  261.8341   29.0021 H       124      M_A    0.0000
    874 H         179.0957  263.3802   26.7158 H       124      M_A    0.0000
    875 H         180.2297  264.3523   27.6427 H       124      M_A    0.0000
    876 C         181.5256  261.9220   28.3087 C.3     125      M_A    0.0000
    877 C         182.8983  262.5716   28.4567 C.3     125      M_A    0.0000
    878 O         183.9110  261.7342   27.8990 O.3     125      M_A    0.0000
    879 H         180.9254  262.1554   29.1956 H       125      M_A    0.0000
    880 H         181.6091  260.8320   28.2427 H       125      M_A    0.0000
    881 H         182.9374  263.5317   27.9272 H       125      M_A    0.0000
    882 H         183.1009  262.7938   29.5143 H       125      M_A    0.0000
    883 C         185.1986  262.1186   28.3362 C.3     126      M_A    0.0000
    884 C         186.0514  262.6687   27.1968 C.3     126      M_A    0.0000
    885 O         187.2895  261.9631   27.1126 O.3     126      M_A    0.0000
    886 H         185.0774  262.8984   29.0967 H       126      M_A    0.0000
    887 H         185.6841  261.2616   28.8151 H       126      M_A    0.0000
    888 H         185.5407  262.5523   26.2327 H       126      M_A    0.0000
    889 H         186.2144  263.7477   27.3315 H       126      M_A    0.0000
    890 C         188.1111  262.4809   26.0861 C.3     127      M_A    0.0000
    891 C         189.0972  261.4417   25.5608 C.3     127      M_A    0.0000
    892 O         190.4177  261.9823   25.5164 O.3     127      M_A    0.0000
    893 H         187.4614  262.8008   25.2634 H       127      M_A    0.0000
    894 H         188.6334  263.3681   26.4597 H       127      M_A    0.0000
    895 H         189.1246  260.5609   26.2145 H       127      M_A    0.0000
    896 H         188.7788  261.0823   24.5716 H       127      M_A    0.0000
    897 C         191.3951  260.9618   25.5306 C.3     128      M_A    0.0000
    898 C         192.7325  261.4400   24.9732 C.3     128      M_A    0.0000
    899 O         193.1883  260.5622   23.9438 O.3     128      M_A    0.0000
    900 H         191.5370  260.6455   26.5704 H       128      M_A    0.0000
    901 H         191.0191  260.0991   24.9705 H       128      M_A    0.0000
    902 H         192.6394  262.4410   24.5339 H       128      M_A    0.0000
    903 H         193.4721  261.5254   25.7823 H       128      M_A    0.0000
    904 C         194.1729  261.1772   23.1381 C.3     129      M_A    0.0000
    905 C         194.7564  260.2137   22.1088 C.3     129      M_A    0.0000
    906 O         196.1066  260.5636   21.8047 O.3     129      M_A    0.0000
    907 H         193.7023  262.0157   22.6121 H       129      M_A    0.0000
    908 H         194.9566  261.5887   23.7831 H       129      M_A    0.0000
    909 H         194.7618  259.1857   22.4922 H       129      M_A    0.0000
    910 H         194.1327  260.2023   21.2034 H       129      M_A    0.0000
    911 C         196.7256  259.5832   20.9970 C.3     130      M_A    0.0000
    912 C         197.1196  260.1317   19.6288 C.3     130      M_A    0.0000
    913 O         196.7737  259.2049   18.5995 O.3     130      M_A    0.0000
    914 H         197.6286  259.2407   21.5152 H       130      M_A    0.0000
    915 H         196.0535  258.7239   20.8998 H       130      M_A    0.0000
    916 H         196.5933  261.0706   19.4158 H       130      M_A    0.0000
    917 H         198.1932  260.3683   19.6096 H       130      M_A    0.0000
    918 C         196.8859  257.8692   19.0471 C.3     131      M_A    0.0000
    919 C         198.1290  257.1802   18.4920 C.3     131      M_A    0.0000
    920 O         197.7896  256.3605   17.3736 O.3     131      M_A    0.0000
    921 H         196.9478  257.8846   20.1413 H       131      M_A    0.0000
    922 H         195.9764  257.3234   18.7744 H       131      M_A    0.0000
    923 H         198.8656  257.9170   18.1478 H       131      M_A    0.0000
    924 H         198.6230  256.5953   19.2812 H       131      M_A    0.0000
    925 C         198.6596  255.2527   17.2614 C.3     132      M_A    0.0000
    926 C         200.1138  255.6363   17.5188 C.3     132      M_A    0.0000
    927 O         200.9127  255.3726   16.3654 O.3     132      M_A    0.0000
    928 H         198.3530  254.5068   18.0037 H       132      M_A    0.0000
    929 H         198.5390  254.8025   16.2703 H       132      M_A    0.0000
    930 H         200.2037  256.7065   17.7430 H       132      M_A    0.0000
    931 H         200.4967  255.1028   18.4008 H       132      M_A    0.0000
    932 C         200.4993  254.1916   15.7089 C.3     133      M_A    0.0000
    933 C         201.4018  253.0060   16.0377 C.3     133      M_A    0.0000
    934 O         201.8200  252.3485   14.8415 O.3     133      M_A    0.0000
    935 H         199.4792  253.9626   16.0378 H       133      M_A    0.0000
    936 H         200.4658  254.3756   14.6298 H       133      M_A    0.0000
    937 H         202.3059  253.3352   16.5649 H       133      M_A    0.0000
    938 H         200.8846  252.3119   16.7156 H       133      M_A    0.0000
    939 C         202.2391  251.0238   15.0990 C.3     134      M_A    0.0000
    940 C         201.3487  249.9953   14.4079 C.3     134      M_A    0.0000
    941 O         200.8335  249.0613   15.3567 O.3     134      M_A    0.0000
    942 H         203.2632  250.9154   14.7237 H       134      M_A    0.0000
    943 H         202.2642  250.8610   16.1818 H       134      M_A    0.0000
    944 H         200.4910  250.4800   13.9250 H       134      M_A    0.0000
    945 H         201.9063  249.4867   13.6084 H       134      M_A    0.0000
    946 C         200.3040  247.9163   14.7201 C.3     135      M_A    0.0000
    947 C         198.9770  247.4800   15.3341 C.3     135      M_A    0.0000
    948 O         198.9645  246.0686   15.5478 O.3     135      M_A    0.0000
    949 H         200.1422  248.1622   13.6643 H       135      M_A    0.0000
    950 H         201.0435  247.1096   14.7627 H       135      M_A    0.0000
    951 H         198.8178  247.9610   16.3073 H       135      M_A    0.0000
    952 H         198.1407  247.7948   14.6936 H       135      M_A    0.0000
    953 C         197.6485  245.5831   15.7192 C.3     136      M_A    0.0000
    954 C         197.5371  244.0975   15.3895 C.3     136      M_A    0.0000
    955 O         196.4872  243.8708   14.4492 O.3     136      M_A    0.0000
    956 H         197.3669  245.7357   16.7674 H       136      M_A    0.0000
    957 H         196.9654  246.1771   15.1028 H       136      M_A    0.0000
    958 H         198.4662  243.7242   14.9408 H       136      M_A    0.0000
    959 H         197.3828  243.5151   16.3093 H       136      M_A    0.0000
    960 C         196.4837  242.5343   13.9901 C.3     137      M_A    0.0000
    961 C         195.1536  242.1513   13.3482 C.3     137      M_A    0.0000
    962 O         194.2775  241.5758   14.3173 O.3     137      M_A    0.0000
    963 H         197.2799  242.4323   13.2439 H       137      M_A    0.0000
    964 H         196.7255  241.8689   14.8256 H       137      M_A    0.0000
    965 H         194.6499  243.0330   12.9326 H       137      M_A    0.0000
    966 H         195.3225  241.4662   12.5049 H       137      M_A    0.0000
    967 C         192.9258  241.8774   14.0364 C.3     138      M_A    0.0000
    968 C         191.9938  240.7232   14.3933 C.3     138      M_A    0.0000
    969 O         190.8669  240.7007   13.5173 O.3     138      M_A    0.0000
    970 H         192.6461  242.7554   14.6297 H       138      M_A    0.0000
    971 H         192.8324  242.1485   12.9794 H       138      M_A    0.0000
    972 H         192.5072  239.7587   14.2930 H       138      M_A    0.0000
    973 H         191.6815  240.7988   15.4448 H       138      M_A    0.0000
    974 C         190.0907  239.5346   13.7029 C.3     139      M_A    0.0000
    975 C         188.8000  239.5685   12.8899 C.3     139      M_A    0.0000
    976 O         187.8009  240.3295   13.5685 O.3     139      M_A    0.0000
    977 H         190.6904  238.6757   13.3804 H       139      M_A    0.0000
    978 H         189.8820  239.4105   14.7709 H       139      M_A    0.0000
    979 H         188.9639  240.0392   11.9125 H       139      M_A    0.0000
    980 H         188.4531  238.5453   12.6856 H       139      M_A    0.0000
    981 C         188.2015  241.6740   13.7387 C.3     140      M_A    0.0000
    982 C         187.2413  242.6490   13.0637 C.3     140      M_A    0.0000
    983 O         187.8804  243.3024   11.9671 O.3     140      M_A    0.0000
    984 H         188.2239  241.8854   14.8139 H       140      M_A    0.0000
    985 H         189.2207  241.7942   13.3562 H       140      M_A    0.0000
    986 H         186.3633  242.1241   12.6670 H       140      M_A    0.0000
    987 H         186.8616  243.3759   13.7961 H       140      M_A    0.0000
    988 C         188.8989  244.1768   12.4083 C.3     141      M_A    0.0000
    989 C         190.0789  244.2178   11.4418 C.3     141      M_A    0.0000
    990 O         191.3005  243.9543   12.1319 O.3     141      M_A    0.0000
    991 H         188.4695  245.1821   12.4865 H       141      M_A    0.0000
    992 H         189.2196  243.8747   13.4111 H       141      M_A    0.0000
    993 H         189.9724  243.4557   10.6598 H       141      M_A    0.0000
    994 H         190.1127  245.1877   10.9252 H       141      M_A    0.0000
    995 H         191.7337  244.7835   12.4237 H       141      M_A    0.0000
    996 H          23.6804  105.0661   28.5036 H         0      M_A    0.0000
@<TRIPOS>BOND
     1     1     2      1
     2     1     4      1
     3     1     5      1
     4     1   996      1
     5     2     3      1
     6     2     6      1
     7     2     7      1
     8     3     8      1
     9     8     9      1
    10     8    11      1
    11     8    12      1
    12     9    10      1
    13     9    13      1
    14     9    14      1
    15    10    15      1
    16    15    16      1
    17    15    18      1
    18    15    19      1
    19    16    17      1
    20    16    20      1
    21    16    21      1
    22    17    22      1
    23    22    23      1
    24    22    25      1
    25    22    26      1
    26    23    24      1
    27    23    27      1
    28    23    28      1
    29    24    29      1
    30    29    30      1
    31    29    32      1
    32    29    33      1
    33    30    31      1
    34    30    34      1
    35    30    35      1
    36    31    36      1
    37    36    37      1
    38    36    39      1
    39    36    40      1
    40    37    38      1
    41    37    41      1
    42    37    42      1
    43    38    43      1
    44    43    44      1
    45    43    46      1
    46    43    47      1
    47    44    45      1
    48    44    48      1
    49    44    49      1
    50    45    50      1
    51    50    51      1
    52    50    53      1
    53    50    54      1
    54    51    52      1
    55    51    55      1
    56    51    56      1
    57    52    57      1
    58    57    58      1
    59    57    60      1
    60    57    61      1
    61    58    59      1
    62    58    62      1
    63    58    63      1
    64    59    64      1
    65    64    65      1
    66    64    67      1
    67    64    68      1
    68    65    66      1
    69    65    69      1
    70    65    70      1
    71    66    71      1
    72    71    72      1
    73    71    74      1
    74    71    75      1
    75    72    73      1
    76    72    76      1
    77    72    77      1
    78    73    78      1
    79    78    79      1
    80    78    81      1
    81    78    82      1
    82    79    80      1
    83    79    83      1
    84    79    84      1
    85    80    85      1
    86    85    86      1
    87    85    88      1
    88    85    89      1
    89    86    87      1
    90    86    90      1
    91    86    91      1
    92    87    92      1
    93    92    93      1
    94    92    95      1
    95    92    96      1
    96    93    94      1
    97    93    97      1
    98    93    98      1
    99    94    99      1
   100    99   100      1
   101    99   102      1
   102    99   103      1
   103   100   101      1
   104   100   104      1
   105   100   105      1
   106   101   106      1
   107   106   107      1
   108   106   109      1
   109   106   110      1
   110   107   108      1
   111   107   111      1
   112   107   112      1
   113   108   113      1
   114   113   114      1
   115   113   116      1
   116   113   117      1
   117   114   115      1
   118   114   118      1
   119   114   119      1
   120   115   120      1
   121   120   121      1
   122   120   123      1
   123   120   124      1
   124   121   122      1
   125   121   125      1
   126   121   126      1
   127   122   127      1
   128   127   128      1
   129   127   130      1
   130   127   131      1
   131   128   129      1
   132   128   132      1
   133   128   133      1
   134   129   134      1
   135   134   135      1
   136   134   137      1
   137   134   138      1
   138   135   136      1
   139   135   139      1
   140   135   140      1
   141   136   141      1
   142   141   142      1
   143   141   144      1
   144   141   145      1
   145   142   143      1
   146   142   146      1
   147   142   147      1
   148   143   148      1
   149   148   149      1
   150   148   151      1
   151   148   152      1
   152   149   150      1
   153   149   153      1
   154   149   154      1
   155   150   155      1
   156   155   156      1
   157   155   158      1
   158   155   159      1
   159   156   157      1
   160   156   160      1
   161   156   161      1
   162   157   162      1
   163   162   163      1
   164   162   165      1
   165   162   166      1
   166   163   164      1
   167   163   167      1
   168   163   168      1
   169   164   169      1
   170   169   170      1
   171   169   172      1
   172   169   173      1
   173   170   171      1
   174   170   174      1
   175   170   175      1
   176   171   176      1
   177   176   177      1
   178   176   179      1
   179   176   180      1
   180   177   178      1
   181   177   181      1
   182   177   182      1
   183   178   183      1
   184   183   184      1
   185   183   186      1
   186   183   187      1
   187   184   185      1
   188   184   188      1
   189   184   189      1
   190   185   190      1
   191   190   191      1
   192   190   193      1
   193   190   194      1
   194   191   192      1
   195   191   195      1
   196   191   196      1
   197   192   197      1
   198   197   198      1
   199   197   200      1
   200   197   201      1
   201   198   199      1
   202   198   202      1
   203   198   203      1
   204   199   204      1
   205   204   205      1
   206   204   207      1
   207   204   208      1
   208   205   206      1
   209   205   209      1
   210   205   210      1
   211   206   211      1
   212   211   212      1
   213   211   214      1
   214   211   215      1
   215   212   213      1
   216   212   216      1
   217   212   217      1
   218   213   218      1
   219   218   219      1
   220   218   221      1
   221   218   222      1
   222   219   220      1
   223   219   223      1
   224   219   224      1
   225   220   225      1
   226   225   226      1
   227   225   228      1
   228   225   229      1
   229   226   227      1
   230   226   230      1
   231   226   231      1
   232   227   232      1
   233   232   233      1
   234   232   235      1
   235   232   236      1
   236   233   234      1
   237   233   237      1
   238   233   238      1
   239   234   239      1
   240   239   240      1
   241   239   242      1
   242   239   243      1
   243   240   241      1
   244   240   244      1
   245   240   245      1
   246   241   246      1
   247   246   247      1
   248   246   249      1
   249   246   250      1
   250   247   248      1
   251   247   251      1
   252   247   252      1
   253   248   253      1
   254   253   254      1
   255   253   256      1
   256   253   257      1
   257   254   255      1
   258   254   258      1
   259   254   259      1
   260   255   260      1
   261   260   261      1
   262   260   263      1
   263   260   264      1
   264   261   262      1
   265   261   265      1
   266   261   266      1
   267   262   267      1
   268   267   268      1
   269   267   270      1
   270   267   271      1
   271   268   269      1
   272   268   272      1
   273   268   273      1
   274   269   274      1
   275   274   275      1
   276   274   277      1
   277   274   278      1
   278   275   276      1
   279   275   279      1
   280   275   280      1
   281   276   281      1
   282   281   282      1
   283   281   284      1
   284   281   285      1
   285   282   283      1
   286   282   286      1
   287   282   287      1
   288   283   288      1
   289   288   289      1
   290   288   291      1
   291   288   292      1
   292   289   290      1
   293   289   293      1
   294   289   294      1
   295   290   295      1
   296   295   296      1
   297   295   298      1
   298   295   299      1
   299   296   297      1
   300   296   300      1
   301   296   301      1
   302   297   302      1
   303   302   303      1
   304   302   305      1
   305   302   306      1
   306   303   304      1
   307   303   307      1
   308   303   308      1
   309   304   309      1
   310   309   310      1
   311   309   312      1
   312   309   313      1
   313   310   311      1
   314   310   314      1
   315   310   315      1
   316   311   316      1
   317   316   317      1
   318   316   319      1
   319   316   320      1
   320   317   318      1
   321   317   321      1
   322   317   322      1
   323   318   323      1
   324   323   324      1
   325   323   326      1
   326   323   327      1
   327   324   325      1
   328   324   328      1
   329   324   329      1
   330   325   330      1
   331   330   331      1
   332   330   333      1
   333   330   334      1
   334   331   332      1
   335   331   335      1
   336   331   336      1
   337   332   337      1
   338   337   338      1
   339   337   340      1
   340   337   341      1
   341   338   339      1
   342   338   342      1
   343   338   343      1
   344   339   344      1
   345   344   345      1
   346   344   347      1
   347   344   348      1
   348   345   346      1
   349   345   349      1
   350   345   350      1
   351   346   351      1
   352   351   352      1
   353   351   354      1
   354   351   355      1
   355   352   353      1
   356   352   356      1
   357   352   357      1
   358   353   358      1
   359   358   359      1
   360   358   361      1
   361   358   362      1
   362   359   360      1
   363   359   363      1
   364   359   364      1
   365   360   365      1
   366   365   366      1
   367   365   368      1
   368   365   369      1
   369   366   367      1
   370   366   370      1
   371   366   371      1
   372   367   372      1
   373   372   373      1
   374   372   375      1
   375   372   376      1
   376   373   374      1
   377   373   377      1
   378   373   378      1
   379   374   379      1
   380   379   380      1
   381   379   382      1
   382   379   383      1
   383   380   381      1
   384   380   384      1
   385   380   385      1
   386   381   386      1
   387   386   387      1
   388   386   389      1
   389   386   390      1
   390   387   388      1
   391   387   391      1
   392   387   392      1
   393   388   393      1
   394   393   394      1
   395   393   396      1
   396   393   397      1
   397   394   395      1
   398   394   398      1
   399   394   399      1
   400   395   400      1
   401   400   401      1
   402   400   403      1
   403   400   404      1
   404   401   402      1
   405   401   405      1
   406   401   406      1
   407   402   407      1
   408   407   408      1
   409   407   410      1
   410   407   411      1
   411   408   409      1
   412   408   412      1
   413   408   413      1
   414   409   414      1
   415   414   415      1
   416   414   417      1
   417   414   418      1
   418   415   416      1
   419   415   419      1
   420   415   420      1
   421   416   421      1
   422   421   422      1
   423   421   424      1
   424   421   425      1
   425   422   423      1
   426   422   426      1
   427   422   427      1
   428   423   428      1
   429   428   429      1
   430   428   431      1
   431   428   432      1
   432   429   430      1
   433   429   433      1
   434   429   434      1
   435   430   435      1
   436   435   436      1
   437   435   438      1
   438   435   439      1
   439   436   437      1
   440   436   440      1
   441   436   441      1
   442   437   442      1
   443   442   443      1
   444   442   445      1
   445   442   446      1
   446   443   444      1
   447   443   447      1
   448   443   448      1
   449   444   449      1
   450   449   450      1
   451   449   452      1
   452   449   453      1
   453   450   451      1
   454   450   454      1
   455   450   455      1
   456   451   456      1
   457   456   457      1
   458   456   459      1
   459   456   460      1
   460   457   458      1
   461   457   461      1
   462   457   462      1
   463   458   463      1
   464   463   464      1
   465   463   466      1
   466   463   467      1
   467   464   465      1
   468   464   468      1
   469   464   469      1
   470   465   470      1
   471   470   471      1
   472   470   473      1
   473   470   474      1
   474   471   472      1
   475   471   475      1
   476   471   476      1
   477   472   477      1
   478   477   478      1
   479   477   480      1
   480   477   481      1
   481   478   479      1
   482   478   482      1
   483   478   483      1
   484   479   484      1
   485   484   485      1
   486   484   487      1
   487   484   488      1
   488   485   486      1
   489   485   489      1
   490   485   490      1
   491   486   491      1
   492   491   492      1
   493   491   494      1
   494   491   495      1
   495   492   493      1
   496   492   496      1
   497   492   497      1
   498   493   498      1
   499   498   499      1
   500   498   501      1
   501   498   502      1
   502   499   500      1
   503   499   503      1
   504   499   504      1
   505   500   505      1
   506   505   506      1
   507   505   508      1
   508   505   509      1
   509   506   507      1
   510   506   510      1
   511   506   511      1
   512   507   512      1
   513   512   513      1
   514   512   515      1
   515   512   516      1
   516   513   514      1
   517   513   517      1
   518   513   518      1
   519   514   519      1
   520   519   520      1
   521   519   522      1
   522   519   523      1
   523   520   521      1
   524   520   524      1
   525   520   525      1
   526   521   526      1
   527   526   527      1
   528   526   529      1
   529   526   530      1
   530   527   528      1
   531   527   531      1
   532   527   532      1
   533   528   533      1
   534   533   534      1
   535   533   536      1
   536   533   537      1
   537   534   535      1
   538   534   538      1
   539   534   539      1
   540   535   540      1
   541   540   541      1
   542   540   543      1
   543   540   544      1
   544   541   542      1
   545   541   545      1
   546   541   546      1
   547   542   547      1
   548   547   548      1
   549   547   550      1
   550   547   551      1
   551   548   549      1
   552   548   552      1
   553   548   553      1
   554   549   554      1
   555   554   555      1
   556   554   557      1
   557   554   558      1
   558   555   556      1
   559   555   559      1
   560   555   560      1
   561   556   561      1
   562   561   562      1
   563   561   564      1
   564   561   565      1
   565   562   563      1
   566   562   566      1
   567   562   567      1
   568   563   568      1
   569   568   569      1
   570   568   571      1
   571   568   572      1
   572   569   570      1
   573   569   573      1
   574   569   574      1
   575   570   575      1
   576   575   576      1
   577   575   578      1
   578   575   579      1
   579   576   577      1
   580   576   580      1
   581   576   581      1
   582   577   582      1
   583   582   583      1
   584   582   585      1
   585   582   586      1
   586   583   584      1
   587   583   587      1
   588   583   588      1
   589   584   589      1
   590   589   590      1
   591   589   592      1
   592   589   593      1
   593   590   591      1
   594   590   594      1
   595   590   595      1
   596   591   596      1
   597   596   597      1
   598   596   599      1
   599   596   600      1
   600   597   598      1
   601   597   601      1
   602   597   602      1
   603   598   603      1
   604   603   604      1
   605   603   606      1
   606   603   607      1
   607   604   605      1
   608   604   608      1
   609   604   609      1
   610   605   610      1
   611   610   611      1
   612   610   613      1
   613   610   614      1
   614   611   612      1
   615   611   615      1
   616   611   616      1
   617   612   617      1
   618   617   618      1
   619   617   620      1
   620   617   621      1
   621   618   619      1
   622   618   622      1
   623   618   623      1
   624   619   624      1
   625   624   625      1
   626   624   627      1
   627   624   628      1
   628   625   626      1
   629   625   629      1
   630   625   630      1
   631   626   631      1
   632   631   632      1
   633   631   634      1
   634   631   635      1
   635   632   633      1
   636   632   636      1
   637   632   637      1
   638   633   638      1
   639   638   639      1
   640   638   641      1
   641   638   642      1
   642   639   640      1
   643   639   643      1
   644   639   644      1
   645   640   645      1
   646   645   646      1
   647   645   648      1
   648   645   649      1
   649   646   647      1
   650   646   650      1
   651   646   651      1
   652   647   652      1
   653   652   653      1
   654   652   655      1
   655   652   656      1
   656   653   654      1
   657   653   657      1
   658   653   658      1
   659   654   659      1
   660   659   660      1
   661   659   662      1
   662   659   663      1
   663   660   661      1
   664   660   664      1
   665   660   665      1
   666   661   666      1
   667   666   667      1
   668   666   669      1
   669   666   670      1
   670   667   668      1
   671   667   671      1
   672   667   672      1
   673   668   673      1
   674   673   674      1
   675   673   676      1
   676   673   677      1
   677   674   675      1
   678   674   678      1
   679   674   679      1
   680   675   680      1
   681   680   681      1
   682   680   683      1
   683   680   684      1
   684   681   682      1
   685   681   685      1
   686   681   686      1
   687   682   687      1
   688   687   688      1
   689   687   690      1
   690   687   691      1
   691   688   689      1
   692   688   692      1
   693   688   693      1
   694   689   694      1
   695   694   695      1
   696   694   697      1
   697   694   698      1
   698   695   696      1
   699   695   699      1
   700   695   700      1
   701   696   701      1
   702   701   702      1
   703   701   704      1
   704   701   705      1
   705   702   703      1
   706   702   706      1
   707   702   707      1
   708   703   708      1
   709   708   709      1
   710   708   711      1
   711   708   712      1
   712   709   710      1
   713   709   713      1
   714   709   714      1
   715   710   715      1
   716   715   716      1
   717   715   718      1
   718   715   719      1
   719   716   717      1
   720   716   720      1
   721   716   721      1
   722   717   722      1
   723   722   723      1
   724   722   725      1
   725   722   726      1
   726   723   724      1
   727   723   727      1
   728   723   728      1
   729   724   729      1
   730   729   730      1
   731   729   732      1
   732   729   733      1
   733   730   731      1
   734   730   734      1
   735   730   735      1
   736   731   736      1
   737   736   737      1
   738   736   739      1
   739   736   740      1
   740   737   738      1
   741   737   741      1
   742   737   742      1
   743   738   743      1
   744   743   744      1
   745   743   746      1
   746   743   747      1
   747   744   745      1
   748   744   748      1
   749   744   749      1
   750   745   750      1
   751   750   751      1
   752   750   753      1
   753   750   754      1
   754   751   752      1
   755   751   755      1
   756   751   756      1
   757   752   757      1
   758   757   758      1
   759   757   760      1
   760   757   761      1
   761   758   759      1
   762   758   762      1
   763   758   763      1
   764   759   764      1
   765   764   765      1
   766   764   767      1
   767   764   768      1
   768   765   766      1
   769   765   769      1
   770   765   770      1
   771   766   771      1
   772   771   772      1
   773   771   774      1
   774   771   775      1
   775   772   773      1
   776   772   776      1
   777   772   777      1
   778   773   778      1
   779   778   779      1
   780   778   781      1
   781   778   782      1
   782   779   780      1
   783   779   783      1
   784   779   784      1
   785   780   785      1
   786   785   786      1
   787   785   788      1
   788   785   789      1
   789   786   787      1
   790   786   790      1
   791   786   791      1
   792   787   792      1
   793   792   793      1
   794   792   795      1
   795   792   796      1
   796   793   794      1
   797   793   797      1
   798   793   798      1
   799   794   799      1
   800   799   800      1
   801   799   802      1
   802   799   803      1
   803   800   801      1
   804   800   804      1
   805   800   805      1
   806   801   806      1
   807   806   807      1
   808   806   809      1
   809   806   810      1
   810   807   808      1
   811   807   811      1
   812   807   812      1
   813   808   813      1
   814   813   814      1
   815   813   816      1
   816   813   817      1
   817   814   815      1
   818   814   818      1
   819   814   819      1
   820   815   820      1
   821   820   821      1
   822   820   823      1
   823   820   824      1
   824   821   822      1
   825   821   825      1
   826   821   826      1
   827   822   827      1
   828   827   828      1
   829   827   830      1
   830   827   831      1
   831   828   829      1
   832   828   832      1
   833   828   833      1
   834   829   834      1
   835   834   835      1
   836   834   837      1
   837   834   838      1
   838   835   836      1
   839   835   839      1
   840   835   840      1
   841   836   841      1
   842   841   842      1
   843   841   844      1
   844   841   845      1
   845   842   843      1
   846   842   846      1
   847   842   847      1
   848   843   848      1
   849   848   849      1
   850   848   851      1
   851   848   852      1
   852   849   850      1
   853   849   853      1
   854   849   854      1
   855   850   855      1
   856   855   856      1
   857   855   858      1
   858   855   859      1
   859   856   857      1
   860   856   860      1
   861   856   861      1
   862   857   862      1
   863   862   863      1
   864   862   865      1
   865   862   866      1
   866   863   864      1
   867   863   867      1
   868   863   868      1
   869   864   869      1
   870   869   870      1
   871   869   872      1
   872   869   873      1
   873   870   871      1
   874   870   874      1
   875   870   875      1
   876   871   876      1
   877   876   877      1
   878   876   879      1
   879   876   880      1
   880   877   878      1
   881   877   881      1
   882   877   882      1
   883   878   883      1
   884   883   884      1
   885   883   886      1
   886   883   887      1
   887   884   885      1
   888   884   888      1
   889   884   889      1
   890   885   890      1
   891   890   891      1
   892   890   893      1
   893   890   894      1
   894   891   892      1
   895   891   895      1
   896   891   896      1
   897   892   897      1
   898   897   898      1
   899   897   900      1
   900   897   901      1
   901   898   899      1
   902   898   902      1
   903   898   903      1
   904   899   904      1
   905   904   905      1
   906   904   907      1
   907   904   908      1
   908   905   906      1
   909   905   909      1
   910   905   910      1
   911   906   911      1
   912   911   912      1
   913   911   914      1
   914   911   915      1
   915   912   913      1
   916   912   916      1
   917   912   917      1
   918   913   918      1
   919   918   919      1
   920   918   921      1
   921   918   922      1
   922   919   920      1
   923   919   923      1
   924   919   924      1
   925   920   925      1
   926   925   926      1
   927   925   928      1
   928   925   929      1
   929   926   927      1
   930   926   930      1
   931   926   931      1
   932   927   932      1
   933   932   933      1
   934   932   935      1
   935   932   936      1
   936   933   934      1
   937   933   937      1
   938   933   938      1
   939   934   939      1
   940   939   940      1
   941   939   942      1
   942   939   943      1
   943   940   941      1
   944   940   944      1
   945   940   945      1
   946   941   946      1
   947   946   947      1
   948   946   949      1
   949   946   950      1
   950   947   948      1
   951   947   951      1
   952   947   952      1
   953   948   953      1
   954   953   954      1
   955   953   956      1
   956   953   957      1
   957   954   955      1
   958   954   958      1
   959   954   959      1
   960   955   960      1
   961   960   961      1
   962   960   963      1
   963   960   964      1
   964   961   962      1
   965   961   965      1
   966   961   966      1
   967   962   967      1
   968   967   968      1
   969   967   970      1
   970   967   971      1
   971   968   969      1
   972   968   972      1
   973   968   973      1
   974   969   974      1
   975   974   975      1
   976   974   977      1
   977   974   978      1
   978   975   976      1
   979   975   979      1
   980   975   980      1
   981   976   981      1
   982   981   982      1
   983   981   984      1
   984   981   985      1
   985   982   983      1
   986   982   986      1
   987   982   987      1
   988   983   988      1
   989   988   989      1
   990   988   991      1
   991   988   992      1
   992   989   990      1
   993   989   993      1
   994   989   994      1
   995   990   995      1
