###
### Created by PolyChef-cpp17 on Mon May 12 10:39:07 2025
###

@<TRIPOS>MOLECULE
NO_INFO
688 687 1 0 0
SMALL
USER_CHARGES


@<TRIPOS>ATOM
      1 C         148.0438  257.0736   80.3042 C.3       0      M_A    0.0000
      2 C         148.9035  255.8842   80.7134 C.3       0      M_A    0.0000
      3 O         148.0697  254.7310   80.8166 O.3       0      M_A    0.0000
      4 H         147.1376  257.0892   80.9202 H         0      M_A    0.0000
      5 H         147.7332  256.9722   79.2580 H         0      M_A    0.0000
      6 H         149.3538  256.1101   81.6902 H         0      M_A    0.0000
      7 H         149.7078  255.7033   79.9879 H         0      M_A    0.0000
      8 C         146.8537  255.0497   81.4588 C.3       1      M_A    0.0000
      9 C         145.7197  254.1089   81.0709 C.3       1      M_A    0.0000
     10 O         144.7892  254.8241   80.2594 O.3       1      M_A    0.0000
     11 H         147.0122  254.9919   82.5416 H         1      M_A    0.0000
     12 H         146.5850  256.0842   81.2166 H         1      M_A    0.0000
     13 H         145.2289  253.7692   81.9938 H         1      M_A    0.0000
     14 H         146.0958  253.2315   80.5280 H         1      M_A    0.0000
     15 C         143.6675  254.0212   79.9601 C.3       2      M_A    0.0000
     16 C         144.0366  252.7583   79.1917 C.3       2      M_A    0.0000
     17 O         142.8381  252.0618   78.8536 O.3       2      M_A    0.0000
     18 H         143.1865  253.7385   80.9033 H         2      M_A    0.0000
     19 H         142.9486  254.6159   79.3851 H         2      M_A    0.0000
     20 H         144.6621  252.1335   79.8446 H         2      M_A    0.0000
     21 H         144.6037  252.9951   78.2815 H         2      M_A    0.0000
     22 C         142.9578  250.6875   79.1531 C.3       3      M_A    0.0000
     23 C         142.1693  249.8057   78.1929 C.3       3      M_A    0.0000
     24 O         141.6915  248.6659   78.9060 O.3       3      M_A    0.0000
     25 H         144.0181  250.4159   79.0998 H         3      M_A    0.0000
     26 H         142.6222  250.5181   80.1826 H         3      M_A    0.0000
     27 H         142.8473  249.4877   77.3884 H         3      M_A    0.0000
     28 H         141.3265  250.3518   77.7484 H         3      M_A    0.0000
     29 C         140.9525  247.8173   78.0536 C.3       4      M_A    0.0000
     30 C         140.7740  246.4175   78.6283 C.3       4      M_A    0.0000
     31 O         140.8944  245.4692   77.5691 O.3       4      M_A    0.0000
     32 H         139.9661  248.2669   77.8932 H         4      M_A    0.0000
     33 H         141.4562  247.7644   77.0817 H         4      M_A    0.0000
     34 H         139.7706  246.3579   79.0730 H         4      M_A    0.0000
     35 H         141.5182  246.2072   79.4081 H         4      M_A    0.0000
     36 C         140.1688  244.2951   77.8652 C.3       5      M_A    0.0000
     37 C         139.6969  243.5644   76.6143 C.3       5      M_A    0.0000
     38 O         138.6931  242.6213   76.9865 O.3       5      M_A    0.0000
     39 H         140.8167  243.6288   78.4459 H         5      M_A    0.0000
     40 H         139.3111  244.5572   78.4949 H         5      M_A    0.0000
     41 H         140.5604  243.0414   76.1798 H         5      M_A    0.0000
     42 H         139.2973  244.2647   75.8686 H         5      M_A    0.0000
     43 C         138.0515  242.0975   75.8434 C.3       6      M_A    0.0000
     44 C         136.5571  241.8868   76.0527 C.3       6      M_A    0.0000
     45 O         136.3224  240.5043   76.3160 O.3       6      M_A    0.0000
     46 H         138.2016  242.7984   75.0145 H         6      M_A    0.0000
     47 H         138.5311  241.1509   75.5697 H         6      M_A    0.0000
     48 H         136.0390  242.1863   75.1309 H         6      M_A    0.0000
     49 H         136.1794  242.4975   76.8837 H         6      M_A    0.0000
     50 C         136.5207  239.7333   75.1504 C.3       7      M_A    0.0000
     51 C         135.2366  239.0839   74.6495 C.3       7      M_A    0.0000
     52 O         135.0248  237.8719   75.3721 O.3       7      M_A    0.0000
     53 H         136.9184  240.3899   74.3683 H         7      M_A    0.0000
     54 H         137.2758  238.9661   75.3564 H         7      M_A    0.0000
     55 H         135.3607  238.8658   73.5795 H         7      M_A    0.0000
     56 H         134.3746  239.7525   74.7754 H         7      M_A    0.0000
     57 C         133.9643  238.0179   76.2922 C.3       8      M_A    0.0000
     58 C         133.2426  236.7053   76.5706 C.3       8      M_A    0.0000
     59 O         131.9328  236.9971   77.0555 O.3       8      M_A    0.0000
     60 H         134.3756  238.4064   77.2308 H         8      M_A    0.0000
     61 H         133.2585  238.7616   75.9052 H         8      M_A    0.0000
     62 H         133.8127  236.1592   77.3354 H         8      M_A    0.0000
     63 H         133.1796  236.0839   75.6673 H         8      M_A    0.0000
     64 C         131.1234  235.8408   77.0345 C.3       9      M_A    0.0000
     65 C         129.6348  236.1652   77.0304 C.3       9      M_A    0.0000
     66 O         128.9180  235.0309   77.5155 O.3       9      M_A    0.0000
     67 H         131.3674  235.2677   76.1328 H         9      M_A    0.0000
     68 H         131.3713  235.2182   77.9016 H         9      M_A    0.0000
     69 H         129.3368  236.3826   75.9951 H         9      M_A    0.0000
     70 H         129.4149  237.0434   77.6522 H         9      M_A    0.0000
     71 C         127.6812  234.8988   76.8480 C.3      10      M_A    0.0000
     72 C         126.6632  234.0971   77.6494 C.3      10      M_A    0.0000
     73 O         125.5705  233.7615   76.7955 O.3      10      M_A    0.0000
     74 H         127.2818  235.9026   76.6641 H        10      M_A    0.0000
     75 H         127.8521  234.4252   75.8745 H        10      M_A    0.0000
     76 H         126.3115  234.7266   78.4789 H        10      M_A    0.0000
     77 H         127.1103  233.1841   78.0648 H        10      M_A    0.0000
     78 C         125.5803  234.5629   75.6335 C.3      11      M_A    0.0000
     79 C         124.2024  234.6908   74.9959 C.3      11      M_A    0.0000
     80 O         124.0115  233.5998   74.0964 O.3      11      M_A    0.0000
     81 H         125.9417  235.5604   75.9079 H        11      M_A    0.0000
     82 H         126.2903  234.1377   74.9151 H        11      M_A    0.0000
     83 H         124.1693  235.6413   74.4451 H        11      M_A    0.0000
     84 H         123.4090  234.6956   75.7552 H        11      M_A    0.0000
     85 C         122.6676  233.5341   73.6692 C.3      12      M_A    0.0000
     86 C         121.7142  233.1329   74.7879 C.3      12      M_A    0.0000
     87 O         121.1970  231.8337   74.5044 O.3      12      M_A    0.0000
     88 H         122.3795  234.5211   73.2901 H        12      M_A    0.0000
     89 H         122.5938  232.8238   72.8379 H        12      M_A    0.0000
     90 H         120.8949  233.8650   74.8154 H        12      M_A    0.0000
     91 H         122.2193  233.1322   75.7631 H        12      M_A    0.0000
     92 C         119.9773  231.6227   75.1829 C.3      13      M_A    0.0000
     93 C         120.0215  230.4143   76.1098 C.3      13      M_A    0.0000
     94 O         119.0013  229.4980   75.7160 O.3      13      M_A    0.0000
     95 H         119.7537  232.5186   75.7731 H        13      M_A    0.0000
     96 H         119.1765  231.5024   74.4444 H        13      M_A    0.0000
     97 H         119.8356  230.7649   77.1348 H        13      M_A    0.0000
     98 H         121.0025  229.9215   76.0783 H        13      M_A    0.0000
     99 C         118.5871  228.7106   76.8120 C.3      14      M_A    0.0000
    100 C         118.3388  227.2565   76.4307 C.3      14      M_A    0.0000
    101 O         117.0846  226.8484   76.9751 O.3      14      M_A    0.0000
    102 H         119.3692  228.7511   77.5785 H        14      M_A    0.0000
    103 H         117.6783  229.1485   77.2403 H        14      M_A    0.0000
    104 H         119.1489  226.6495   76.8589 H        14      M_A    0.0000
    105 H         118.3371  227.1233   75.3406 H        14      M_A    0.0000
    106 C         116.9983  225.4405   77.0297 C.3      15      M_A    0.0000
    107 C         117.3978  224.7757   75.7183 C.3      15      M_A    0.0000
    108 O         117.6331  223.3895   75.9610 O.3      15      M_A    0.0000
    109 H         117.6618  225.0868   77.8270 H        15      M_A    0.0000
    110 H         115.9743  225.1578   77.2992 H        15      M_A    0.0000
    111 H         118.3196  225.2556   75.3606 H        15      M_A    0.0000
    112 H         116.6180  224.8968   74.9544 H        15      M_A    0.0000
    113 C         117.9119  223.1619   77.3260 C.3      16      M_A    0.0000
    114 C         118.7025  221.8804   77.5588 C.3      16      M_A    0.0000
    115 O         117.7857  220.7961   77.6985 O.3      16      M_A    0.0000
    116 H         118.4895  224.0127   77.7047 H        16      M_A    0.0000
    117 H         116.9671  223.1280   77.8804 H        16      M_A    0.0000
    118 H         119.2831  222.0023   78.4841 H        16      M_A    0.0000
    119 H         119.3963  221.6823   76.7309 H        16      M_A    0.0000
    120 C         117.4484  220.2616   76.4363 C.3      17      M_A    0.0000
    121 C         117.3645  218.7403   76.4455 C.3      17      M_A    0.0000
    122 O         117.8829  218.2460   75.2115 O.3      17      M_A    0.0000
    123 H         116.4768  220.6718   76.1386 H        17      M_A    0.0000
    124 H         118.1896  220.5939   75.7006 H        17      M_A    0.0000
    125 H         116.3071  218.4586   76.5479 H        17      M_A    0.0000
    126 H         117.9261  218.3136   77.2873 H        17      M_A    0.0000
    127 C         117.1687  217.1030   74.7919 C.3      18      M_A    0.0000
    128 C         117.4704  215.8759   75.6433 C.3      18      M_A    0.0000
    129 O         117.4066  214.7166   74.8139 O.3      18      M_A    0.0000
    130 H         116.0976  217.3263   74.8528 H        18      M_A    0.0000
    131 H         117.4073  216.9011   73.7415 H        18      M_A    0.0000
    132 H         116.7087  215.8144   76.4332 H        18      M_A    0.0000
    133 H         118.4605  215.9484   76.1131 H        18      M_A    0.0000
    134 C         117.0814  213.5742   75.5767 C.3      19      M_A    0.0000
    135 C         118.1917  212.5308   75.5753 C.3      19      M_A    0.0000
    136 O         117.6077  211.2410   75.7518 O.3      19      M_A    0.0000
    137 H         116.8911  213.8930   76.6078 H        19      M_A    0.0000
    138 H         116.1544  213.1390   75.1865 H        19      M_A    0.0000
    139 H         118.8689  212.7536   76.4119 H        19      M_A    0.0000
    140 H         118.7661  212.5590   74.6397 H        19      M_A    0.0000
    141 C         118.5631  210.3225   76.2377 C.3      20      M_A    0.0000
    142 C         118.3974  208.9306   75.6404 C.3      20      M_A    0.0000
    143 O         118.6307  207.9632   76.6628 O.3      20      M_A    0.0000
    144 H         119.5608  210.7019   75.9897 H        20      M_A    0.0000
    145 H         118.4869  210.2756   77.3300 H        20      M_A    0.0000
    146 H         119.1391  208.8145   74.8377 H        20      M_A    0.0000
    147 H         117.3939  208.7944   75.2155 H        20      M_A    0.0000
    148 C         118.5126  206.6541   76.1480 C.3      21      M_A    0.0000
    149 C         118.7584  205.5830   77.2033 C.3      21      M_A    0.0000
    150 O         119.0755  204.3571   76.5457 O.3      21      M_A    0.0000
    151 H         117.5005  206.5341   75.7451 H        21      M_A    0.0000
    152 H         119.2177  206.5343   75.3176 H        21      M_A    0.0000
    153 H         117.8367  205.4661   77.7905 H        21      M_A    0.0000
    154 H         119.5742  205.8685   77.8808 H        21      M_A    0.0000
    155 C         119.4612  203.3735   77.4818 C.3      22      M_A    0.0000
    156 C         120.0967  202.1542   76.8254 C.3      22      M_A    0.0000
    157 O         119.2387  201.0308   77.0192 O.3      22      M_A    0.0000
    158 H         120.1814  203.8231   78.1747 H        22      M_A    0.0000
    159 H         118.5824  203.0733   78.0637 H        22      M_A    0.0000
    160 H         121.0664  201.9735   77.3102 H        22      M_A    0.0000
    161 H         120.2643  202.3190   75.7526 H        22      M_A    0.0000
    162 C         119.4314  200.0734   75.9999 C.3      23      M_A    0.0000
    163 C         118.7232  198.7559   76.2893 C.3      23      M_A    0.0000
    164 O         119.4884  197.6916   75.7258 O.3      23      M_A    0.0000
    165 H         119.0458  200.4887   75.0619 H        23      M_A    0.0000
    166 H         120.5065  199.9034   75.8714 H        23      M_A    0.0000
    167 H         117.7301  198.7932   75.8198 H        23      M_A    0.0000
    168 H         118.5970  198.5981   77.3688 H        23      M_A    0.0000
    169 C         119.4092  197.7113   74.3166 C.3      24      M_A    0.0000
    170 C         118.0223  197.3487   73.8006 C.3      24      M_A    0.0000
    171 O         117.5545  196.2035   74.5116 O.3      24      M_A    0.0000
    172 H         119.6669  198.7193   73.9726 H        24      M_A    0.0000
    173 H         120.1557  197.0198   73.9095 H        24      M_A    0.0000
    174 H         118.1078  197.1162   72.7298 H        24      M_A    0.0000
    175 H         117.3184  198.1824   73.9252 H        24      M_A    0.0000
    176 C         118.6378  195.4510   75.0145 C.3      25      M_A    0.0000
    177 C         118.4587  193.9521   74.8077 C.3      25      M_A    0.0000
    178 O         117.8874  193.3923   75.9893 O.3      25      M_A    0.0000
    179 H         119.5494  195.7768   74.5010 H        25      M_A    0.0000
    180 H         118.7593  195.6727   76.0808 H        25      M_A    0.0000
    181 H         119.4497  193.5130   74.6260 H        25      M_A    0.0000
    182 H         117.8158  193.7415   73.9427 H        25      M_A    0.0000
    183 C         117.3304  192.1232   75.7216 C.3      26      M_A    0.0000
    184 C         116.0745  192.2016   74.8627 C.3      26      M_A    0.0000
    185 O         115.5474  190.8855   74.7015 O.3      26      M_A    0.0000
    186 H         118.0834  191.5211   75.2006 H        26      M_A    0.0000
    187 H         117.1066  191.6261   76.6724 H        26      M_A    0.0000
    188 H         116.3568  192.6150   73.8842 H        26      M_A    0.0000
    189 H         115.3190  192.8564   75.3173 H        26      M_A    0.0000
    190 C         114.9050  190.4567   75.8831 C.3      27      M_A    0.0000
    191 C         115.2179  189.0063   76.2292 C.3      27      M_A    0.0000
    192 O         114.3123  188.1612   75.5210 O.3      27      M_A    0.0000
    193 H         115.2354  191.1004   76.7061 H        27      M_A    0.0000
    194 H         113.8235  190.5921   75.7682 H        27      M_A    0.0000
    195 H         115.0817  188.8780   77.3122 H        27      M_A    0.0000
    196 H         116.2537  188.7478   75.9711 H        27      M_A    0.0000
    197 C         114.4547  186.8190   75.9343 C.3      28      M_A    0.0000
    198 C         114.9725  185.9136   74.8236 C.3      28      M_A    0.0000
    199 O         113.9527  184.9745   74.4862 O.3      28      M_A    0.0000
    200 H         115.1571  186.7917   76.7751 H        28      M_A    0.0000
    201 H         113.4869  186.4548   76.2974 H        28      M_A    0.0000
    202 H         115.8591  185.3851   75.2012 H        28      M_A    0.0000
    203 H         115.2590  186.4932   73.9358 H        28      M_A    0.0000
    204 C         114.5189  183.7452   74.0851 C.3      29      M_A    0.0000
    205 C         113.8091  183.1355   72.8826 C.3      29      M_A    0.0000
    206 O         113.2391  181.8869   73.2722 O.3      29      M_A    0.0000
    207 H         115.5704  183.9188   73.8299 H        29      M_A    0.0000
    208 H         114.4923  183.0493   74.9313 H        29      M_A    0.0000
    209 H         114.5555  182.9766   72.0916 H        29      M_A    0.0000
    210 H         113.0260  183.8033   72.4992 H        29      M_A    0.0000
    211 C         112.8059  181.1612   72.1416 C.3      30      M_A    0.0000
    212 C         111.4331  180.5302   72.3386 C.3      30      M_A    0.0000
    213 O         111.1892  179.6212   71.2662 O.3      30      M_A    0.0000
    214 H         112.7653  181.8476   71.2883 H        30      M_A    0.0000
    215 H         113.5470  180.3874   71.9112 H        30      M_A    0.0000
    216 H         110.6842  181.3345   72.3262 H        30      M_A    0.0000
    217 H         111.3690  180.0036   73.3002 H        30      M_A    0.0000
    218 C         109.8044  179.4019   71.1026 C.3      31      M_A    0.0000
    219 C         109.4951  178.0656   70.4393 C.3      31      M_A    0.0000
    220 O         108.0940  177.9980   70.1777 O.3      31      M_A    0.0000
    221 H         109.3337  179.4279   72.0919 H        31      M_A    0.0000
    222 H         109.3824  180.2228   70.5118 H        31      M_A    0.0000
    223 H         109.7859  177.2654   71.1344 H        31      M_A    0.0000
    224 H         110.0587  177.9428   69.5048 H        31      M_A    0.0000
    225 C         107.4266  179.1064   70.7422 C.3      32      M_A    0.0000
    226 C         106.0324  178.7579   71.2482 C.3      32      M_A    0.0000
    227 O         105.1057  178.9040   70.1731 O.3      32      M_A    0.0000
    228 H         108.0282  179.4794   71.5789 H        32      M_A    0.0000
    229 H         107.3675  179.9043   69.9932 H        32      M_A    0.0000
    230 H         105.7801  179.4565   72.0584 H        32      M_A    0.0000
    231 H         105.9939  177.7333   71.6415 H        32      M_A    0.0000
    232 C         105.5032  178.1286   69.0625 C.3      33      M_A    0.0000
    233 C         104.4832  177.0569   68.6984 C.3      33      M_A    0.0000
    234 O         104.9469  176.3570   67.5448 O.3      33      M_A    0.0000
    235 H         105.6384  178.7995   68.2066 H        33      M_A    0.0000
    236 H         106.4732  177.6675   69.2803 H        33      M_A    0.0000
    237 H         103.5297  177.5563   68.4760 H        33      M_A    0.0000
    238 H         104.3280  176.3540   69.5278 H        33      M_A    0.0000
    239 C         103.9057  175.5967   66.9699 C.3      34      M_A    0.0000
    240 C         103.1378  174.7779   68.0000 C.3      34      M_A    0.0000
    241 O         102.6594  173.5881   67.3744 O.3      34      M_A    0.0000
    242 H         103.2136  176.2847   66.4714 H        34      M_A    0.0000
    243 H         104.3290  174.9374   66.2036 H        34      M_A    0.0000
    244 H         102.2907  175.3829   68.3526 H        34      M_A    0.0000
    245 H         103.7706  174.5222   68.8604 H        34      M_A    0.0000
    246 C         101.4587  173.1550   67.9774 C.3      35      M_A    0.0000
    247 C         101.4997  171.6862   68.3802 C.3      35      M_A    0.0000
    248 O         100.8352  170.9182   67.3780 O.3      35      M_A    0.0000
    249 H         101.2832  173.7662   68.8699 H        35      M_A    0.0000
    250 H         100.6290  173.3328   67.2838 H        35      M_A    0.0000
    251 H         100.9761  171.5823   69.3410 H        35      M_A    0.0000
    252 H         102.5325  171.3332   68.5017 H        35      M_A    0.0000
    253 C         100.2553  169.7599   67.9392 C.3      36      M_A    0.0000
    254 C         100.9633  168.4809   67.5098 C.3      36      M_A    0.0000
    255 O         100.2736  167.9306   66.3884 O.3      36      M_A    0.0000
    256 H         100.3034  169.8466   69.0305 H        36      M_A    0.0000
    257 H          99.1977  169.7192   67.6549 H        36      M_A    0.0000
    258 H         100.9322  167.7757   68.3522 H        36      M_A    0.0000
    259 H         102.0127  168.6727   67.2490 H        36      M_A    0.0000
    260 C         100.9342  168.2599   65.1851 C.3      37      M_A    0.0000
    261 C          99.9671  168.5565   64.0458 C.3      37      M_A    0.0000
    262 O         100.7193  168.7875   62.8555 O.3      37      M_A    0.0000
    263 H         101.5561  169.1439   65.3661 H        37      M_A    0.0000
    264 H         101.6007  167.4350   64.9089 H        37      M_A    0.0000
    265 H          99.3967  169.4581   64.3098 H        37      M_A    0.0000
    266 H          99.2640  167.7272   63.8915 H        37      M_A    0.0000
    267 C         100.0324  169.6697   61.9939 C.3      38      M_A    0.0000
    268 C          98.5499  169.3392   61.8743 C.3      38      M_A    0.0000
    269 O          98.0679  169.8425   60.6292 O.3      38      M_A    0.0000
    270 H         100.1418  170.6870   62.3864 H        38      M_A    0.0000
    271 H         100.5059  169.6415   61.0060 H        38      M_A    0.0000
    272 H          98.0240  169.8291   62.7058 H        38      M_A    0.0000
    273 H          98.3750  168.2567   61.9356 H        38      M_A    0.0000
    274 C          97.4118  168.8270   59.9004 C.3      39      M_A    0.0000
    275 C          97.7994  168.8168   58.4270 C.3      39      M_A    0.0000
    276 O          96.6284  168.5786   57.6474 O.3      39      M_A    0.0000
    277 H          97.6740  167.8609   60.3462 H        39      M_A    0.0000
    278 H          96.3288  168.9586   60.0046 H        39      M_A    0.0000
    279 H          98.5248  168.0058   58.2717 H        39      M_A    0.0000
    280 H          98.2633  169.7665   58.1286 H        39      M_A    0.0000
    281 C          96.9720  168.1194   56.3576 C.3      40      M_A    0.0000
    282 C          98.0496  168.9709   55.6981 C.3      40      M_A    0.0000
    283 O          98.2019  168.5482   54.3439 O.3      40      M_A    0.0000
    284 H          97.3341  167.0888   56.4455 H        40      M_A    0.0000
    285 H          96.0704  168.1033   55.7347 H        40      M_A    0.0000
    286 H          98.9890  168.8161   56.2473 H        40      M_A    0.0000
    287 H          97.7931  170.0383   55.7325 H        40      M_A    0.0000
    288 C          99.5379  168.7097   53.9175 C.3      41      M_A    0.0000
    289 C          99.6544  169.5592   52.6581 C.3      41      M_A    0.0000
    290 O         100.5926  168.9443   51.7765 O.3      41      M_A    0.0000
    291 H         100.1004  169.1896   54.7263 H        41      M_A    0.0000
    292 H          99.9782  167.7206   53.7472 H        41      M_A    0.0000
    293 H         100.0132  170.5557   52.9519 H        41      M_A    0.0000
    294 H          98.6830  169.6679   52.1574 H        41      M_A    0.0000
    295 C         100.7525  169.7121   50.6028 C.3      42      M_A    0.0000
    296 C         101.7991  169.1327   49.6592 C.3      42      M_A    0.0000
    297 O         102.8377  170.0949   49.4817 O.3      42      M_A    0.0000
    298 H          99.7873  169.7526   50.0853 H        42      M_A    0.0000
    299 H         101.0230  170.7365   50.8829 H        42      M_A    0.0000
    300 H         101.3115  168.9253   48.6964 H        42      M_A    0.0000
    301 H         102.2170  168.1961   50.0518 H        42      M_A    0.0000
    302 C         103.8716  169.5707   48.6762 C.3      43      M_A    0.0000
    303 C         104.6027  168.4101   49.3395 C.3      43      M_A    0.0000
    304 O         105.8066  168.1550   48.6173 O.3      43      M_A    0.0000
    305 H         103.4308  169.2247   47.7344 H        43      M_A    0.0000
    306 H         104.5777  170.3742   48.4376 H        43      M_A    0.0000
    307 H         103.9477  167.5285   49.3001 H        43      M_A    0.0000
    308 H         104.8339  168.6309   50.3902 H        43      M_A    0.0000
    309 C         105.5221  167.5822   47.3589 C.3      44      M_A    0.0000
    310 C         106.2862  168.2503   46.2226 C.3      44      M_A    0.0000
    311 O         105.4017  169.1319   45.5326 O.3      44      M_A    0.0000
    312 H         105.7921  166.5208   47.3963 H        44      M_A    0.0000
    313 H         104.4434  167.6449   47.1760 H        44      M_A    0.0000
    314 H         106.6387  167.4635   45.5409 H        44      M_A    0.0000
    315 H         107.1553  168.8070   46.5978 H        44      M_A    0.0000
    316 C         105.6845  169.1416   44.1497 C.3      45      M_A    0.0000
    317 C         105.9399  170.5439   43.6116 C.3      45      M_A    0.0000
    318 O         104.8744  170.8972   42.7309 O.3      45      M_A    0.0000
    319 H         106.5734  168.5245   43.9770 H        45      M_A    0.0000
    320 H         104.8486  168.6783   43.6132 H        45      M_A    0.0000
    321 H         106.8916  170.5293   43.0620 H        45      M_A    0.0000
    322 H         106.0142  171.2775   44.4256 H        45      M_A    0.0000
    323 C         105.2924  171.8837   41.8118 C.3      46      M_A    0.0000
    324 C         104.2422  172.9656   41.5924 C.3      46      M_A    0.0000
    325 O         103.5081  172.6572   40.4084 O.3      46      M_A    0.0000
    326 H         106.2077  172.3464   42.1979 H        46      M_A    0.0000
    327 H         105.5400  171.4000   40.8601 H        46      M_A    0.0000
    328 H         104.7632  173.9258   41.4714 H        46      M_A    0.0000
    329 H         103.5597  173.0404   42.4495 H        46      M_A    0.0000
    330 C         102.3941  171.8441   40.7091 C.3      47      M_A    0.0000
    331 C         101.4960  171.6073   39.5013 C.3      47      M_A    0.0000
    332 O         100.3254  172.4119   39.6369 O.3      47      M_A    0.0000
    333 H         102.7626  170.8793   41.0757 H        47      M_A    0.0000
    334 H         101.8219  172.3111   41.5187 H        47      M_A    0.0000
    335 H         101.2202  170.5435   39.4859 H        47      M_A    0.0000
    336 H         102.0135  171.8510   38.5639 H        47      M_A    0.0000
    337 C          99.1961  171.7416   39.1192 C.3      48      M_A    0.0000
    338 C          98.9895  172.0002   37.6320 C.3      48      M_A    0.0000
    339 O          97.6646  172.4909   37.4326 O.3      48      M_A    0.0000
    340 H          99.3319  170.6662   39.2801 H        48      M_A    0.0000
    341 H          98.3093  172.0530   39.6829 H        48      M_A    0.0000
    342 H          99.1208  171.0477   37.0996 H        48      M_A    0.0000
    343 H          99.7205  172.7233   37.2462 H        48      M_A    0.0000
    344 C          97.1270  172.0000   36.2232 C.3      49      M_A    0.0000
    345 C          96.2636  173.0285   35.5033 C.3      49      M_A    0.0000
    346 O          94.9694  172.4682   35.2865 O.3      49      M_A    0.0000
    347 H          97.9585  171.7109   35.5705 H        49      M_A    0.0000
    348 H          96.5414  171.0982   36.4352 H        49      M_A    0.0000
    349 H          96.7396  173.2573   34.5394 H        49      M_A    0.0000
    350 H          96.1793  173.9568   36.0840 H        49      M_A    0.0000
    351 C          94.2259  172.4499   36.4863 C.3      50      M_A    0.0000
    352 C          92.8628  173.1154   36.3434 C.3      50      M_A    0.0000
    353 O          92.9740  174.4782   36.7509 O.3      50      M_A    0.0000
    354 H          94.0846  171.4054   36.7864 H        50      M_A    0.0000
    355 H          94.8072  172.9460   37.2718 H        50      M_A    0.0000
    356 H          92.1552  172.5851   36.9962 H        50      M_A    0.0000
    357 H          92.4972  173.0606   35.3092 H        50      M_A    0.0000
    358 C          93.3590  175.2943   35.6654 C.3      51      M_A    0.0000
    359 C          92.3058  176.3368   35.3111 C.3      51      M_A    0.0000
    360 O          91.4412  175.7933   34.3146 O.3      51      M_A    0.0000
    361 H          94.2913  175.8041   35.9332 H        51      M_A    0.0000
    362 H          93.5655  174.6570   34.7980 H        51      M_A    0.0000
    363 H          92.8232  177.2224   34.9162 H        51      M_A    0.0000
    364 H          91.7233  176.6331   36.1937 H        51      M_A    0.0000
    365 C          90.5516  174.8559   34.8827 C.3      52      M_A    0.0000
    366 C          89.3652  174.5480   33.9777 C.3      52      M_A    0.0000
    367 O          88.2387  174.2283   34.7929 O.3      52      M_A    0.0000
    368 H          91.1055  173.9299   35.0743 H        52      M_A    0.0000
    369 H          90.2004  175.2393   35.8475 H        52      M_A    0.0000
    370 H          89.6309  173.6857   33.3501 H        52      M_A    0.0000
    371 H          89.1281  175.3990   33.3253 H        52      M_A    0.0000
    372 C          87.1437  173.8282   33.9969 C.3      53      M_A    0.0000
    373 C          86.2414  172.8225   34.7011 C.3      53      M_A    0.0000
    374 O          85.4122  172.1910   33.7266 O.3      53      M_A    0.0000
    375 H          86.5583  174.7199   33.7458 H        53      M_A    0.0000
    376 H          87.5222  173.4039   33.0600 H        53      M_A    0.0000
    377 H          85.6204  173.3703   35.4237 H        53      M_A    0.0000
    378 H          86.8285  172.0679   35.2415 H        53      M_A    0.0000
    379 C          84.0785  172.1113   34.1820 C.3      54      M_A    0.0000
    380 C          83.2149  171.2028   33.3159 C.3      54      M_A    0.0000
    381 O          81.8495  171.5882   33.4681 O.3      54      M_A    0.0000
    382 H          84.0886  171.7246   35.2073 H        54      M_A    0.0000
    383 H          83.6525  173.1207   34.2113 H        54      M_A    0.0000
    384 H          83.3538  170.1693   33.6632 H        54      M_A    0.0000
    385 H          83.5069  171.2617   32.2589 H        54      M_A    0.0000
    386 C          80.9986  170.4677   33.3542 C.3      55      M_A    0.0000
    387 C          81.4103  169.5290   32.2269 C.3      55      M_A    0.0000
    388 O          80.4608  168.4670   32.1460 O.3      55      M_A    0.0000
    389 H          81.0237  169.9200   34.3031 H        55      M_A    0.0000
    390 H          79.9714  170.8164   33.1984 H        55      M_A    0.0000
    391 H          82.4044  169.1259   32.4659 H        55      M_A    0.0000
    392 H          81.4660  170.0579   31.2660 H        55      M_A    0.0000
    393 C          79.2616  168.9135   31.5501 C.3      56      M_A    0.0000
    394 C          78.0210  168.4167   32.2817 C.3      56      M_A    0.0000
    395 O          77.2913  167.5535   31.4110 O.3      56      M_A    0.0000
    396 H          79.2643  170.0094   31.5534 H        56      M_A    0.0000
    397 H          79.2404  168.5840   30.5051 H        56      M_A    0.0000
    398 H          77.4080  169.2904   32.5439 H        56      M_A    0.0000
    399 H          78.2871  167.8832   33.2041 H        56      M_A    0.0000
    400 C          76.2737  166.8761   32.1170 C.3      57      M_A    0.0000
    401 C          75.7818  165.6313   31.3891 C.3      57      M_A    0.0000
    402 O          74.4631  165.8768   30.9027 O.3      57      M_A    0.0000
    403 H          76.6709  166.5848   33.0959 H        57      M_A    0.0000
    404 H          75.4403  167.5669   32.2882 H        57      M_A    0.0000
    405 H          75.7677  164.8001   32.1081 H        57      M_A    0.0000
    406 H          76.4466  165.3657   30.5563 H        57      M_A    0.0000
    407 C          73.7564  164.6654   30.7422 C.3      58      M_A    0.0000
    408 C          74.2226  163.8689   29.5299 C.3      58      M_A    0.0000
    409 O          73.1557  163.0254   29.0987 O.3      58      M_A    0.0000
    410 H          73.9019  164.0612   31.6449 H        58      M_A    0.0000
    411 H          72.6864  164.8870   30.6590 H        58      M_A    0.0000
    412 H          75.0839  163.2581   29.8349 H        58      M_A    0.0000
    413 H          74.5328  164.5316   28.7109 H        58      M_A    0.0000
    414 C          73.6566  161.8093   28.5859 C.3      59      M_A    0.0000
    415 C          72.6526  161.0894   27.6942 C.3      59      M_A    0.0000
    416 O          72.4679  159.7643   28.1902 O.3      59      M_A    0.0000
    417 H          74.5593  162.0281   28.0045 H        59      M_A    0.0000
    418 H          73.9480  161.1644   29.4228 H        59      M_A    0.0000
    419 H          73.0655  161.0547   26.6762 H        59      M_A    0.0000
    420 H          71.6906  161.6183   27.6666 H        59      M_A    0.0000
    421 C          71.6685  159.7735   29.3536 C.3      60      M_A    0.0000
    422 C          70.7935  158.5322   29.4755 C.3      60      M_A    0.0000
    423 O          69.5847  158.7514   28.7498 O.3      60      M_A    0.0000
    424 H          72.3311  159.8314   30.2246 H        60      M_A    0.0000
    425 H          71.0454  160.6751   29.3490 H        60      M_A    0.0000
    426 H          70.5690  158.3775   30.5403 H        60      M_A    0.0000
    427 H          71.3071  157.6411   29.0905 H        60      M_A    0.0000
    428 C          69.8568  159.3183   27.4860 C.3      61      M_A    0.0000
    429 C          69.1277  158.6067   26.3531 C.3      61      M_A    0.0000
    430 O          70.0867  157.9133   25.5561 O.3      61      M_A    0.0000
    431 H          69.5461  160.3690   27.5073 H        61      M_A    0.0000
    432 H          70.9385  159.2947   27.3118 H        61      M_A    0.0000
    433 H          68.6160  159.3675   25.7471 H        61      M_A    0.0000
    434 H          68.3793  157.9018   26.7394 H        61      M_A    0.0000
    435 C          69.4592  156.9263   24.7657 C.3      62      M_A    0.0000
    436 C          70.3005  155.6639   24.6242 C.3      62      M_A    0.0000
    437 O          69.6016  154.7392   23.7921 O.3      62      M_A    0.0000
    438 H          68.5028  156.6684   25.2344 H        62      M_A    0.0000
    439 H          69.2425  157.3478   23.7775 H        62      M_A    0.0000
    440 H          70.4411  155.2347   25.6262 H        62      M_A    0.0000
    441 H          71.2864  155.8861   24.1944 H        62      M_A    0.0000
    442 C          69.6206  153.4458   24.3573 C.3      63      M_A    0.0000
    443 C          69.4228  152.3478   23.3195 C.3      63      M_A    0.0000
    444 O          68.6436  151.3036   23.9011 O.3      63      M_A    0.0000
    445 H          70.5881  153.3014   24.8512 H        63      M_A    0.0000
    446 H          68.8419  153.3828   25.1259 H        63      M_A    0.0000
    447 H          70.4133  151.9641   23.0374 H        63      M_A    0.0000
    448 H          68.9245  152.7327   22.4198 H        63      M_A    0.0000
    449 C          68.7143  150.1319   23.1170 C.3      64      M_A    0.0000
    450 C          67.3465  149.5099   22.8647 C.3      64      M_A    0.0000
    451 O          67.2740  148.2663   23.5604 O.3      64      M_A    0.0000
    452 H          69.1731  150.3896   22.1558 H        64      M_A    0.0000
    453 H          69.3706  149.4099   23.6161 H        64      M_A    0.0000
    454 H          67.2436  149.3414   21.7835 H        64      M_A    0.0000
    455 H          66.5374  150.1743   23.1965 H        64      M_A    0.0000
    456 C          66.2216  147.4723   23.0557 C.3      65      M_A    0.0000
    457 C          64.8469  148.0036   23.4421 C.3      65      M_A    0.0000
    458 O          63.9159  146.9225   23.4202 O.3      65      M_A    0.0000
    459 H          66.3025  147.4499   21.9630 H        65      M_A    0.0000
    460 H          66.3452  146.4460   23.4197 H        65      M_A    0.0000
    461 H          64.5562  148.7640   22.7037 H        65      M_A    0.0000
    462 H          64.8623  148.4668   24.4377 H        65      M_A    0.0000
    463 C          64.3047  145.9103   24.3239 C.3      66      M_A    0.0000
    464 C          63.5284  144.6145   24.1248 C.3      66      M_A    0.0000
    465 O          62.4242  144.5991   25.0282 O.3      66      M_A    0.0000
    466 H          65.3730  145.7133   24.1795 H        66      M_A    0.0000
    467 H          64.1694  146.2773   25.3477 H        66      M_A    0.0000
    468 H          64.2042  143.7759   24.3441 H        66      M_A    0.0000
    469 H          63.1702  144.5174   23.0911 H        66      M_A    0.0000
    470 C          61.9592  143.2811   25.2262 C.3      67      M_A    0.0000
    471 C          61.1123  142.7758   24.0648 C.3      67      M_A    0.0000
    472 O          59.7481  142.7275   24.4803 O.3      67      M_A    0.0000
    473 H          62.8287  142.6251   25.3470 H        67      M_A    0.0000
    474 H          61.3826  143.2442   26.1574 H        67      M_A    0.0000
    475 H          61.4607  141.7667   23.8034 H        67      M_A    0.0000
    476 H          61.2144  143.4233   23.1836 H        67      M_A    0.0000
    477 C          58.9897  141.9145   23.6106 C.3      68      M_A    0.0000
    478 C          57.7870  142.6431   23.0241 C.3      68      M_A    0.0000
    479 O          56.6256  141.8366   23.2151 O.3      68      M_A    0.0000
    480 H          59.6415  141.5845   22.7938 H        68      M_A    0.0000
    481 H          58.6611  141.0220   24.1553 H        68      M_A    0.0000
    482 H          57.9689  142.7904   21.9503 H        68      M_A    0.0000
    483 H          57.6450  143.6248   23.4955 H        68      M_A    0.0000
    484 C          55.7436  141.9639   22.1203 C.3      69      M_A    0.0000
    485 C          54.3496  142.4155   22.5378 C.3      69      M_A    0.0000
    486 O          53.5218  141.2634   22.6899 O.3      69      M_A    0.0000
    487 H          56.1644  142.6985   21.4245 H        69      M_A    0.0000
    488 H          55.6875  141.0031   21.5961 H        69      M_A    0.0000
    489 H          53.9499  143.0626   21.7444 H        69      M_A    0.0000
    490 H          54.3778  142.9851   23.4764 H        69      M_A    0.0000
    491 C          52.1574  141.6254   22.6904 C.3      70      M_A    0.0000
    492 C          51.8038  142.5834   23.8212 C.3      70      M_A    0.0000
    493 O          50.9196  141.9199   24.7233 O.3      70      M_A    0.0000
    494 H          51.9291  142.1039   21.7313 H        70      M_A    0.0000
    495 H          51.5491  140.7166   22.7620 H        70      M_A    0.0000
    496 H          51.3043  143.4584   23.3820 H        70      M_A    0.0000
    497 H          52.7021  142.9212   24.3551 H        70      M_A    0.0000
    498 C          51.5713  141.6354   25.9427 C.3      71      M_A    0.0000
    499 C          51.0389  140.3754   26.6138 C.3      71      M_A    0.0000
    500 O          50.0603  140.7512   27.5818 O.3      71      M_A    0.0000
    501 H          52.6404  141.5078   25.7386 H        71      M_A    0.0000
    502 H          51.4608  142.4952   26.6132 H        71      M_A    0.0000
    503 H          51.8813  139.8715   27.1082 H        71      M_A    0.0000
    504 H          50.5978  139.6873   25.8804 H        71      M_A    0.0000
    505 C          49.3633  139.6178   28.0533 C.3      72      M_A    0.0000
    506 C          48.4674  138.9944   26.9902 C.3      72      M_A    0.0000
    507 O          47.9809  137.7447   27.4774 O.3      72      M_A    0.0000
    508 H          50.0989  138.8750   28.3821 H        72      M_A    0.0000
    509 H          48.7676  139.9056   28.9270 H        72      M_A    0.0000
    510 H          49.0723  138.8349   26.0865 H        72      M_A    0.0000
    511 H          47.6258  139.6538   26.7392 H        72      M_A    0.0000
    512 C          46.9587  137.2465   26.6410 C.3      73      M_A    0.0000
    513 C          46.3407  135.9587   27.1711 C.3      73      M_A    0.0000
    514 O          46.8520  134.8612   26.4162 O.3      73      M_A    0.0000
    515 H          46.1781  138.0114   26.5604 H        73      M_A    0.0000
    516 H          47.3690  137.0828   25.6380 H        73      M_A    0.0000
    517 H          45.2512  136.0265   27.0435 H        73      M_A    0.0000
    518 H          46.5625  135.8177   28.2375 H        73      M_A    0.0000
    519 C          46.9400  133.7021   27.2171 C.3      74      M_A    0.0000
    520 C          45.8722  132.6699   26.8770 C.3      74      M_A    0.0000
    521 O          45.4426  132.0413   28.0836 O.3      74      M_A    0.0000
    522 H          47.9297  133.2560   27.0673 H        74      M_A    0.0000
    523 H          46.8619  133.9922   28.2711 H        74      M_A    0.0000
    524 H          46.3210  131.9249   26.2051 H        74      M_A    0.0000
    525 H          45.0159  133.1328   26.3683 H        74      M_A    0.0000
    526 C          44.3791  131.1482   27.8302 C.3      75      M_A    0.0000
    527 C          43.9113  130.4203   29.0843 C.3      75      M_A    0.0000
    528 O          44.4163  129.0861   29.0541 O.3      75      M_A    0.0000
    529 H          43.5419  131.7208   27.4153 H        75      M_A    0.0000
    530 H          44.6965  130.4249   27.0706 H        75      M_A    0.0000
    531 H          42.8123  130.4055   29.0790 H        75      M_A    0.0000
    532 H          44.2526  130.9313   29.9945 H        75      M_A    0.0000
    533 C          45.6255  128.9935   29.7765 C.3      76      M_A    0.0000
    534 C          46.2479  127.6046   29.7055 C.3      76      M_A    0.0000
    535 O          45.7801  126.8364   30.8130 O.3      76      M_A    0.0000
    536 H          46.3299  129.7231   29.3613 H        76      M_A    0.0000
    537 H          45.4374  129.2695   30.8204 H        76      M_A    0.0000
    538 H          47.3397  127.7178   29.7619 H        76      M_A    0.0000
    539 H          45.9941  127.1001   28.7636 H        76      M_A    0.0000
    540 C          46.0979  125.4714   30.6438 C.3      77      M_A    0.0000
    541 C          45.3053  124.8184   29.5183 C.3      77      M_A    0.0000
    542 O          44.7147  123.6170   30.0118 O.3      77      M_A    0.0000
    543 H          47.1678  125.3935   30.4201 H        77      M_A    0.0000
    544 H          45.9161  124.9450   31.5877 H        77      M_A    0.0000
    545 H          46.0031  124.5854   28.7017 H        77      M_A    0.0000
    546 H          44.5262  125.4909   29.1351 H        77      M_A    0.0000
    547 C          44.5127  123.6962   31.4066 C.3      78      M_A    0.0000
    548 C          44.2984  122.3310   32.0481 C.3      78      M_A    0.0000
    549 O          43.0032  122.3047   32.6463 O.3      78      M_A    0.0000
    550 H          45.3946  124.1678   31.8547 H        78      M_A    0.0000
    551 H          43.6519  124.3451   31.6044 H        78      M_A    0.0000
    552 H          45.0701  122.1921   32.8183 H        78      M_A    0.0000
    553 H          44.3881  121.5233   31.3094 H        78      M_A    0.0000
    554 C          42.6289  120.9824   32.9688 C.3      79      M_A    0.0000
    555 C          42.4649  120.7669   34.4681 C.3      79      M_A    0.0000
    556 O          42.5457  119.3688   34.7410 O.3      79      M_A    0.0000
    557 H          41.6781  120.7636   32.4696 H        79      M_A    0.0000
    558 H          43.3810  120.2930   32.5688 H        79      M_A    0.0000
    559 H          41.4771  121.1497   34.7608 H        79      M_A    0.0000
    560 H          43.2344  121.3063   35.0365 H        79      M_A    0.0000
    561 C          41.7746  119.0360   35.8756 C.3      80      M_A    0.0000
    562 C          42.3513  117.8601   36.6541 C.3      80      M_A    0.0000
    563 O          41.4550  116.7553   36.5448 O.3      80      M_A    0.0000
    564 H          41.7327  119.9132   36.5311 H        80      M_A    0.0000
    565 H          40.7510  118.8107   35.5555 H        80      M_A    0.0000
    566 H          42.4468  118.1628   37.7063 H        80      M_A    0.0000
    567 H          43.3435  117.5784   36.2768 H        80      M_A    0.0000
    568 C          41.8899  115.6782   37.3468 C.3      81      M_A    0.0000
    569 C          41.4670  114.3237   36.7918 C.3      81      M_A    0.0000
    570 O          41.1137  113.4729   37.8813 O.3      81      M_A    0.0000
    571 H          42.9835  115.7148   37.4066 H        81      M_A    0.0000
    572 H          41.4965  115.8095   38.3612 H        81      M_A    0.0000
    573 H          42.3205  113.8985   36.2452 H        81      M_A    0.0000
    574 H          40.6191  114.4215   36.1006 H        81      M_A    0.0000
    575 C          41.8899  113.7732   39.0215 C.3      82      M_A    0.0000
    576 C          42.2159  112.5386   39.8526 C.3      82      M_A    0.0000
    577 O          41.4144  112.5569   41.0329 O.3      82      M_A    0.0000
    578 H          42.8250  114.2369   38.6874 H        82      M_A    0.0000
    579 H          41.3536  114.5082   39.6324 H        82      M_A    0.0000
    580 H          43.2807  112.5810   40.1217 H        82      M_A    0.0000
    581 H          42.0317  111.6154   39.2871 H        82      M_A    0.0000
    582 C          41.2999  111.2602   41.5790 C.3      83      M_A    0.0000
    583 C          40.4371  110.3376   40.7271 C.3      83      M_A    0.0000
    584 O          40.4095  109.0469   41.3345 O.3      83      M_A    0.0000
    585 H          42.3057  110.8333   41.6629 H        83      M_A    0.0000
    586 H          40.8854  111.3364   42.5906 H        83      M_A    0.0000
    587 H          40.8919  110.2726   39.7286 H        83      M_A    0.0000
    588 H          39.4154  110.7271   40.6243 H        83      M_A    0.0000
    589 C          39.5695  109.0468   42.4690 C.3      84      M_A    0.0000
    590 C          40.0247  108.0606   43.5375 C.3      84      M_A    0.0000
    591 O          39.6493  106.7442   43.1349 O.3      84      M_A    0.0000
    592 H          39.5655  110.0573   42.8930 H        84      M_A    0.0000
    593 H          38.5462  108.8145   42.1529 H        84      M_A    0.0000
    594 H          39.5216  108.3227   44.4788 H        84      M_A    0.0000
    595 H          41.1108  108.1114   43.6923 H        84      M_A    0.0000
    596 C          39.2618  105.9721   44.2513 C.3      85      M_A    0.0000
    597 C          40.1804  104.7800   44.4890 C.3      85      M_A    0.0000
    598 O          39.5179  103.8568   45.3520 O.3      85      M_A    0.0000
    599 H          39.2767  106.6176   45.1367 H        85      M_A    0.0000
    600 H          38.2307  105.6305   44.1059 H        85      M_A    0.0000
    601 H          41.0986  105.1483   44.9678 H        85      M_A    0.0000
    602 H          40.4484  104.2868   43.5451 H        85      M_A    0.0000
    603 C          40.4263  103.2970   46.2762 C.3      86      M_A    0.0000
    604 C          39.8058  102.1819   47.1086 C.3      86      M_A    0.0000
    605 O          40.7104  101.8353   48.1561 O.3      86      M_A    0.0000
    606 H          41.2793  102.8949   45.7181 H        86      M_A    0.0000
    607 H          40.8017  104.0919   46.9307 H        86      M_A    0.0000
    608 H          39.6441  101.3162   46.4509 H        86      M_A    0.0000
    609 H          38.8398  102.4884   47.5317 H        86      M_A    0.0000
    610 C          40.0362  101.1561   49.1938 C.3      87      M_A    0.0000
    611 C          40.9715  100.3064   50.0451 C.3      87      M_A    0.0000
    612 O          40.3358   99.0582   50.3165 O.3      87      M_A    0.0000
    613 H          39.5495  101.9020   49.8324 H        87      M_A    0.0000
    614 H          39.2509  100.5294   48.7562 H        87      M_A    0.0000
    615 H          41.1586  100.8443   50.9851 H        87      M_A    0.0000
    616 H          41.9312  100.1377   49.5385 H        87      M_A    0.0000
    617 C          41.1450   98.2567   51.1505 C.3      88      M_A    0.0000
    618 C          42.5654   98.1042   50.6208 C.3      88      M_A    0.0000
    619 O          43.2727   97.1952   51.4631 O.3      88      M_A    0.0000
    620 H          41.1808   98.7209   52.1425 H        88      M_A    0.0000
    621 H          40.6758   97.2723   51.2604 H        88      M_A    0.0000
    622 H          43.0464   99.0920   50.6477 H        88      M_A    0.0000
    623 H          42.5693   97.7383   49.5854 H        88      M_A    0.0000
    624 C          42.4881   96.8361   52.5803 C.3      89      M_A    0.0000
    625 C          43.3297   96.4235   53.7815 C.3      89      M_A    0.0000
    626 O          42.7569   95.2523   54.3610 O.3      89      M_A    0.0000
    627 H          41.8690   97.6973   52.8558 H        89      M_A    0.0000
    628 H          41.8147   96.0203   52.2937 H        89      M_A    0.0000
    629 H          43.3128   97.2481   54.5080 H        89      M_A    0.0000
    630 H          44.3714   96.2296   53.4927 H        89      M_A    0.0000
    631 C          43.0117   95.2058   55.7486 C.3      90      M_A    0.0000
    632 C          43.7922   93.9641   56.1617 C.3      90      M_A    0.0000
    633 O          42.9973   93.2060   57.0724 O.3      90      M_A    0.0000
    634 H          43.5871   96.0975   56.0217 H        90      M_A    0.0000
    635 H          42.0577   95.2477   56.2863 H        90      M_A    0.0000
    636 H          44.7176   94.2926   56.6553 H        90      M_A    0.0000
    637 H          44.0563   93.3493   55.2909 H        90      M_A    0.0000
    638 C          43.5213   91.9046   57.2287 C.3      91      M_A    0.0000
    639 C          43.5577   91.4565   58.6844 C.3      91      M_A    0.0000
    640 O          44.7513   90.7056   58.9023 O.3      91      M_A    0.0000
    641 H          42.8944   91.2114   56.6564 H        91      M_A    0.0000
    642 H          44.5291   91.8738   56.7993 H        91      M_A    0.0000
    643 H          42.6779   90.8238   58.8677 H        91      M_A    0.0000
    644 H          43.5232   92.3150   59.3684 H        91      M_A    0.0000
    645 C          44.6059   89.8482   60.0142 C.3      92      M_A    0.0000
    646 C          45.9110   89.1659   60.4051 C.3      92      M_A    0.0000
    647 O          45.7513   87.7555   60.2598 O.3      92      M_A    0.0000
    648 H          44.2453   90.4429   60.8611 H        92      M_A    0.0000
    649 H          43.8414   89.0970   59.7856 H        92      M_A    0.0000
    650 H          46.1230   89.4133   61.4548 H        92      M_A    0.0000
    651 H          46.7469   89.5159   59.7847 H        92      M_A    0.0000
    652 C          45.7816   87.3872   58.8974 C.3      93      M_A    0.0000
    653 C          45.6017   85.8887   58.6894 C.3      93      M_A    0.0000
    654 O          46.8787   85.3056   58.4342 O.3      93      M_A    0.0000
    655 H          44.9755   87.9197   58.3802 H        93      M_A    0.0000
    656 H          46.7315   87.7171   58.4616 H        93      M_A    0.0000
    657 H          44.9426   85.7423   57.8222 H        93      M_A    0.0000
    658 H          45.1405   85.4154   59.5666 H        93      M_A    0.0000
    659 C          46.9801   84.0376   59.0463 C.3      94      M_A    0.0000
    660 C          48.0764   83.1750   58.4336 C.3      94      M_A    0.0000
    661 O          47.6143   81.8267   58.3673 O.3      94      M_A    0.0000
    662 H          47.1947   84.1867   60.1106 H        94      M_A    0.0000
    663 H          46.0126   83.5284   58.9701 H        94      M_A    0.0000
    664 H          48.9608   83.2369   59.0831 H        94      M_A    0.0000
    665 H          48.3502   83.5286   57.4306 H        94      M_A    0.0000
    666 C          48.6129   80.9821   57.8363 C.3      95      M_A    0.0000
    667 C          48.9839   81.3397   56.4024 C.3      95      M_A    0.0000
    668 O          49.4474   80.1626   55.7425 O.3      95      M_A    0.0000
    669 H          49.5044   81.0656   58.4681 H        95      M_A    0.0000
    670 H          48.2645   79.9443   57.8880 H        95      M_A    0.0000
    671 H          49.7852   82.0912   56.4357 H        95      M_A    0.0000
    672 H          48.1269   81.7620   55.8608 H        95      M_A    0.0000
    673 C          48.3673   79.3133   55.4192 C.3      96      M_A    0.0000
    674 C          48.7208   78.2974   54.3401 C.3      96      M_A    0.0000
    675 O          47.5366   77.9691   53.6151 O.3      96      M_A    0.0000
    676 H          48.0663   78.7800   56.3280 H        96      M_A    0.0000
    677 H          47.5181   79.9262   55.0964 H        96      M_A    0.0000
    678 H          49.1186   77.4002   54.8348 H        96      M_A    0.0000
    679 H          49.4844   78.6902   53.6555 H        96      M_A    0.0000
    680 C          46.7415   77.0582   54.3436 C.3      97      M_A    0.0000
    681 C          45.8191   77.7492   55.3401 C.3      97      M_A    0.0000
    682 O          45.9000   77.0644   56.5893 O.3      97      M_A    0.0000
    683 H          46.1354   76.4864   53.6317 H        97      M_A    0.0000
    684 H          47.3978   76.3517   54.8644 H        97      M_A    0.0000
    685 H          44.7936   77.6951   54.9485 H        97      M_A    0.0000
    686 H          46.0911   78.8050   55.4715 H        97      M_A    0.0000
    687 H          45.1779   77.3485   57.1878 H        97      M_A    0.0000
    688 H         148.5576  258.0268   80.4290 H         0      M_A    0.0000
@<TRIPOS>BOND
     1     1     2      1
     2     1     4      1
     3     1     5      1
     4     1   688      1
     5     2     3      1
     6     2     6      1
     7     2     7      1
     8     3     8      1
     9     8     9      1
    10     8    11      1
    11     8    12      1
    12     9    10      1
    13     9    13      1
    14     9    14      1
    15    10    15      1
    16    15    16      1
    17    15    18      1
    18    15    19      1
    19    16    17      1
    20    16    20      1
    21    16    21      1
    22    17    22      1
    23    22    23      1
    24    22    25      1
    25    22    26      1
    26    23    24      1
    27    23    27      1
    28    23    28      1
    29    24    29      1
    30    29    30      1
    31    29    32      1
    32    29    33      1
    33    30    31      1
    34    30    34      1
    35    30    35      1
    36    31    36      1
    37    36    37      1
    38    36    39      1
    39    36    40      1
    40    37    38      1
    41    37    41      1
    42    37    42      1
    43    38    43      1
    44    43    44      1
    45    43    46      1
    46    43    47      1
    47    44    45      1
    48    44    48      1
    49    44    49      1
    50    45    50      1
    51    50    51      1
    52    50    53      1
    53    50    54      1
    54    51    52      1
    55    51    55      1
    56    51    56      1
    57    52    57      1
    58    57    58      1
    59    57    60      1
    60    57    61      1
    61    58    59      1
    62    58    62      1
    63    58    63      1
    64    59    64      1
    65    64    65      1
    66    64    67      1
    67    64    68      1
    68    65    66      1
    69    65    69      1
    70    65    70      1
    71    66    71      1
    72    71    72      1
    73    71    74      1
    74    71    75      1
    75    72    73      1
    76    72    76      1
    77    72    77      1
    78    73    78      1
    79    78    79      1
    80    78    81      1
    81    78    82      1
    82    79    80      1
    83    79    83      1
    84    79    84      1
    85    80    85      1
    86    85    86      1
    87    85    88      1
    88    85    89      1
    89    86    87      1
    90    86    90      1
    91    86    91      1
    92    87    92      1
    93    92    93      1
    94    92    95      1
    95    92    96      1
    96    93    94      1
    97    93    97      1
    98    93    98      1
    99    94    99      1
   100    99   100      1
   101    99   102      1
   102    99   103      1
   103   100   101      1
   104   100   104      1
   105   100   105      1
   106   101   106      1
   107   106   107      1
   108   106   109      1
   109   106   110      1
   110   107   108      1
   111   107   111      1
   112   107   112      1
   113   108   113      1
   114   113   114      1
   115   113   116      1
   116   113   117      1
   117   114   115      1
   118   114   118      1
   119   114   119      1
   120   115   120      1
   121   120   121      1
   122   120   123      1
   123   120   124      1
   124   121   122      1
   125   121   125      1
   126   121   126      1
   127   122   127      1
   128   127   128      1
   129   127   130      1
   130   127   131      1
   131   128   129      1
   132   128   132      1
   133   128   133      1
   134   129   134      1
   135   134   135      1
   136   134   137      1
   137   134   138      1
   138   135   136      1
   139   135   139      1
   140   135   140      1
   141   136   141      1
   142   141   142      1
   143   141   144      1
   144   141   145      1
   145   142   143      1
   146   142   146      1
   147   142   147      1
   148   143   148      1
   149   148   149      1
   150   148   151      1
   151   148   152      1
   152   149   150      1
   153   149   153      1
   154   149   154      1
   155   150   155      1
   156   155   156      1
   157   155   158      1
   158   155   159      1
   159   156   157      1
   160   156   160      1
   161   156   161      1
   162   157   162      1
   163   162   163      1
   164   162   165      1
   165   162   166      1
   166   163   164      1
   167   163   167      1
   168   163   168      1
   169   164   169      1
   170   169   170      1
   171   169   172      1
   172   169   173      1
   173   170   171      1
   174   170   174      1
   175   170   175      1
   176   171   176      1
   177   176   177      1
   178   176   179      1
   179   176   180      1
   180   177   178      1
   181   177   181      1
   182   177   182      1
   183   178   183      1
   184   183   184      1
   185   183   186      1
   186   183   187      1
   187   184   185      1
   188   184   188      1
   189   184   189      1
   190   185   190      1
   191   190   191      1
   192   190   193      1
   193   190   194      1
   194   191   192      1
   195   191   195      1
   196   191   196      1
   197   192   197      1
   198   197   198      1
   199   197   200      1
   200   197   201      1
   201   198   199      1
   202   198   202      1
   203   198   203      1
   204   199   204      1
   205   204   205      1
   206   204   207      1
   207   204   208      1
   208   205   206      1
   209   205   209      1
   210   205   210      1
   211   206   211      1
   212   211   212      1
   213   211   214      1
   214   211   215      1
   215   212   213      1
   216   212   216      1
   217   212   217      1
   218   213   218      1
   219   218   219      1
   220   218   221      1
   221   218   222      1
   222   219   220      1
   223   219   223      1
   224   219   224      1
   225   220   225      1
   226   225   226      1
   227   225   228      1
   228   225   229      1
   229   226   227      1
   230   226   230      1
   231   226   231      1
   232   227   232      1
   233   232   233      1
   234   232   235      1
   235   232   236      1
   236   233   234      1
   237   233   237      1
   238   233   238      1
   239   234   239      1
   240   239   240      1
   241   239   242      1
   242   239   243      1
   243   240   241      1
   244   240   244      1
   245   240   245      1
   246   241   246      1
   247   246   247      1
   248   246   249      1
   249   246   250      1
   250   247   248      1
   251   247   251      1
   252   247   252      1
   253   248   253      1
   254   253   254      1
   255   253   256      1
   256   253   257      1
   257   254   255      1
   258   254   258      1
   259   254   259      1
   260   255   260      1
   261   260   261      1
   262   260   263      1
   263   260   264      1
   264   261   262      1
   265   261   265      1
   266   261   266      1
   267   262   267      1
   268   267   268      1
   269   267   270      1
   270   267   271      1
   271   268   269      1
   272   268   272      1
   273   268   273      1
   274   269   274      1
   275   274   275      1
   276   274   277      1
   277   274   278      1
   278   275   276      1
   279   275   279      1
   280   275   280      1
   281   276   281      1
   282   281   282      1
   283   281   284      1
   284   281   285      1
   285   282   283      1
   286   282   286      1
   287   282   287      1
   288   283   288      1
   289   288   289      1
   290   288   291      1
   291   288   292      1
   292   289   290      1
   293   289   293      1
   294   289   294      1
   295   290   295      1
   296   295   296      1
   297   295   298      1
   298   295   299      1
   299   296   297      1
   300   296   300      1
   301   296   301      1
   302   297   302      1
   303   302   303      1
   304   302   305      1
   305   302   306      1
   306   303   304      1
   307   303   307      1
   308   303   308      1
   309   304   309      1
   310   309   310      1
   311   309   312      1
   312   309   313      1
   313   310   311      1
   314   310   314      1
   315   310   315      1
   316   311   316      1
   317   316   317      1
   318   316   319      1
   319   316   320      1
   320   317   318      1
   321   317   321      1
   322   317   322      1
   323   318   323      1
   324   323   324      1
   325   323   326      1
   326   323   327      1
   327   324   325      1
   328   324   328      1
   329   324   329      1
   330   325   330      1
   331   330   331      1
   332   330   333      1
   333   330   334      1
   334   331   332      1
   335   331   335      1
   336   331   336      1
   337   332   337      1
   338   337   338      1
   339   337   340      1
   340   337   341      1
   341   338   339      1
   342   338   342      1
   343   338   343      1
   344   339   344      1
   345   344   345      1
   346   344   347      1
   347   344   348      1
   348   345   346      1
   349   345   349      1
   350   345   350      1
   351   346   351      1
   352   351   352      1
   353   351   354      1
   354   351   355      1
   355   352   353      1
   356   352   356      1
   357   352   357      1
   358   353   358      1
   359   358   359      1
   360   358   361      1
   361   358   362      1
   362   359   360      1
   363   359   363      1
   364   359   364      1
   365   360   365      1
   366   365   366      1
   367   365   368      1
   368   365   369      1
   369   366   367      1
   370   366   370      1
   371   366   371      1
   372   367   372      1
   373   372   373      1
   374   372   375      1
   375   372   376      1
   376   373   374      1
   377   373   377      1
   378   373   378      1
   379   374   379      1
   380   379   380      1
   381   379   382      1
   382   379   383      1
   383   380   381      1
   384   380   384      1
   385   380   385      1
   386   381   386      1
   387   386   387      1
   388   386   389      1
   389   386   390      1
   390   387   388      1
   391   387   391      1
   392   387   392      1
   393   388   393      1
   394   393   394      1
   395   393   396      1
   396   393   397      1
   397   394   395      1
   398   394   398      1
   399   394   399      1
   400   395   400      1
   401   400   401      1
   402   400   403      1
   403   400   404      1
   404   401   402      1
   405   401   405      1
   406   401   406      1
   407   402   407      1
   408   407   408      1
   409   407   410      1
   410   407   411      1
   411   408   409      1
   412   408   412      1
   413   408   413      1
   414   409   414      1
   415   414   415      1
   416   414   417      1
   417   414   418      1
   418   415   416      1
   419   415   419      1
   420   415   420      1
   421   416   421      1
   422   421   422      1
   423   421   424      1
   424   421   425      1
   425   422   423      1
   426   422   426      1
   427   422   427      1
   428   423   428      1
   429   428   429      1
   430   428   431      1
   431   428   432      1
   432   429   430      1
   433   429   433      1
   434   429   434      1
   435   430   435      1
   436   435   436      1
   437   435   438      1
   438   435   439      1
   439   436   437      1
   440   436   440      1
   441   436   441      1
   442   437   442      1
   443   442   443      1
   444   442   445      1
   445   442   446      1
   446   443   444      1
   447   443   447      1
   448   443   448      1
   449   444   449      1
   450   449   450      1
   451   449   452      1
   452   449   453      1
   453   450   451      1
   454   450   454      1
   455   450   455      1
   456   451   456      1
   457   456   457      1
   458   456   459      1
   459   456   460      1
   460   457   458      1
   461   457   461      1
   462   457   462      1
   463   458   463      1
   464   463   464      1
   465   463   466      1
   466   463   467      1
   467   464   465      1
   468   464   468      1
   469   464   469      1
   470   465   470      1
   471   470   471      1
   472   470   473      1
   473   470   474      1
   474   471   472      1
   475   471   475      1
   476   471   476      1
   477   472   477      1
   478   477   478      1
   479   477   480      1
   480   477   481      1
   481   478   479      1
   482   478   482      1
   483   478   483      1
   484   479   484      1
   485   484   485      1
   486   484   487      1
   487   484   488      1
   488   485   486      1
   489   485   489      1
   490   485   490      1
   491   486   491      1
   492   491   492      1
   493   491   494      1
   494   491   495      1
   495   492   493      1
   496   492   496      1
   497   492   497      1
   498   493   498      1
   499   498   499      1
   500   498   501      1
   501   498   502      1
   502   499   500      1
   503   499   503      1
   504   499   504      1
   505   500   505      1
   506   505   506      1
   507   505   508      1
   508   505   509      1
   509   506   507      1
   510   506   510      1
   511   506   511      1
   512   507   512      1
   513   512   513      1
   514   512   515      1
   515   512   516      1
   516   513   514      1
   517   513   517      1
   518   513   518      1
   519   514   519      1
   520   519   520      1
   521   519   522      1
   522   519   523      1
   523   520   521      1
   524   520   524      1
   525   520   525      1
   526   521   526      1
   527   526   527      1
   528   526   529      1
   529   526   530      1
   530   527   528      1
   531   527   531      1
   532   527   532      1
   533   528   533      1
   534   533   534      1
   535   533   536      1
   536   533   537      1
   537   534   535      1
   538   534   538      1
   539   534   539      1
   540   535   540      1
   541   540   541      1
   542   540   543      1
   543   540   544      1
   544   541   542      1
   545   541   545      1
   546   541   546      1
   547   542   547      1
   548   547   548      1
   549   547   550      1
   550   547   551      1
   551   548   549      1
   552   548   552      1
   553   548   553      1
   554   549   554      1
   555   554   555      1
   556   554   557      1
   557   554   558      1
   558   555   556      1
   559   555   559      1
   560   555   560      1
   561   556   561      1
   562   561   562      1
   563   561   564      1
   564   561   565      1
   565   562   563      1
   566   562   566      1
   567   562   567      1
   568   563   568      1
   569   568   569      1
   570   568   571      1
   571   568   572      1
   572   569   570      1
   573   569   573      1
   574   569   574      1
   575   570   575      1
   576   575   576      1
   577   575   578      1
   578   575   579      1
   579   576   577      1
   580   576   580      1
   581   576   581      1
   582   577   582      1
   583   582   583      1
   584   582   585      1
   585   582   586      1
   586   583   584      1
   587   583   587      1
   588   583   588      1
   589   584   589      1
   590   589   590      1
   591   589   592      1
   592   589   593      1
   593   590   591      1
   594   590   594      1
   595   590   595      1
   596   591   596      1
   597   596   597      1
   598   596   599      1
   599   596   600      1
   600   597   598      1
   601   597   601      1
   602   597   602      1
   603   598   603      1
   604   603   604      1
   605   603   606      1
   606   603   607      1
   607   604   605      1
   608   604   608      1
   609   604   609      1
   610   605   610      1
   611   610   611      1
   612   610   613      1
   613   610   614      1
   614   611   612      1
   615   611   615      1
   616   611   616      1
   617   612   617      1
   618   617   618      1
   619   617   620      1
   620   617   621      1
   621   618   619      1
   622   618   622      1
   623   618   623      1
   624   619   624      1
   625   624   625      1
   626   624   627      1
   627   624   628      1
   628   625   626      1
   629   625   629      1
   630   625   630      1
   631   626   631      1
   632   631   632      1
   633   631   634      1
   634   631   635      1
   635   632   633      1
   636   632   636      1
   637   632   637      1
   638   633   638      1
   639   638   639      1
   640   638   641      1
   641   638   642      1
   642   639   640      1
   643   639   643      1
   644   639   644      1
   645   640   645      1
   646   645   646      1
   647   645   648      1
   648   645   649      1
   649   646   647      1
   650   646   650      1
   651   646   651      1
   652   647   652      1
   653   652   653      1
   654   652   655      1
   655   652   656      1
   656   653   654      1
   657   653   657      1
   658   653   658      1
   659   654   659      1
   660   659   660      1
   661   659   662      1
   662   659   663      1
   663   660   661      1
   664   660   664      1
   665   660   665      1
   666   661   666      1
   667   666   667      1
   668   666   669      1
   669   666   670      1
   670   667   668      1
   671   667   671      1
   672   667   672      1
   673   668   673      1
   674   673   674      1
   675   673   676      1
   676   673   677      1
   677   674   675      1
   678   674   678      1
   679   674   679      1
   680   675   680      1
   681   680   681      1
   682   680   683      1
   683   680   684      1
   684   681   682      1
   685   681   685      1
   686   681   686      1
   687   682   687      1
