###
### Created by PolyChef-cpp17 on Mon May 12 10:39:07 2025
###

@<TRIPOS>MOLECULE
NO_INFO
1591 1590 1 0 0
SMALL
USER_CHARGES


@<TRIPOS>ATOM
      1 C         216.8823  207.6384   91.1210 C.3       0      M_A    0.0000
      2 C         215.8814  206.9743   90.1801 C.3       0      M_A    0.0000
      3 O         216.5490  206.4338   89.0399 O.3       0      M_A    0.0000
      4 H         217.7038  208.0996   90.5626 H         0      M_A    0.0000
      5 H         217.3150  206.8732   91.7757 H         0      M_A    0.0000
      6 H         215.3135  206.1997   90.7154 H         0      M_A    0.0000
      7 H         215.1440  207.7003   89.8155 H         0      M_A    0.0000
      8 C         217.7650  205.8103   89.3998 C.3       1      M_A    0.0000
      9 C         217.6254  204.2941   89.4989 C.3       1      M_A    0.0000
     10 O         218.2390  203.6606   88.3764 O.3       1      M_A    0.0000
     11 H         218.5378  206.0896   88.6758 H         1      M_A    0.0000
     12 H         218.0687  206.2030   90.3770 H         1      M_A    0.0000
     13 H         218.0549  203.9345   90.4451 H         1      M_A    0.0000
     14 H         216.5694  203.9967   89.5072 H         1      M_A    0.0000
     15 C         217.9646  202.2746   88.3508 C.3       2      M_A    0.0000
     16 C         216.5025  201.9847   88.0250 C.3       2      M_A    0.0000
     17 O         216.3690  200.6948   87.4281 O.3       2      M_A    0.0000
     18 H         218.6335  201.7911   87.6308 H         2      M_A    0.0000
     19 H         218.1945  201.8672   89.3420 H         2      M_A    0.0000
     20 H         215.8871  202.0712   88.9321 H         2      M_A    0.0000
     21 H         216.1060  202.7189   87.3126 H         2      M_A    0.0000
     22 C         216.9047  200.6719   86.1207 C.3       3      M_A    0.0000
     23 C         217.9804  199.6017   85.9597 C.3       3      M_A    0.0000
     24 O         217.3863  198.3096   85.8356 O.3       3      M_A    0.0000
     25 H         216.0903  200.5249   85.4033 H         3      M_A    0.0000
     26 H         217.3489  201.6539   85.9213 H         3      M_A    0.0000
     27 H         218.6192  199.8328   85.0951 H         3      M_A    0.0000
     28 H         218.6427  199.5762   86.8340 H         3      M_A    0.0000
     29 C         216.7564  197.9125   87.0367 C.3       4      M_A    0.0000
     30 C         216.5788  196.3993   87.1187 C.3       4      M_A    0.0000
     31 O         217.0593  195.9061   88.3693 O.3       4      M_A    0.0000
     32 H         217.3365  198.2891   87.8859 H         4      M_A    0.0000
     33 H         215.7694  198.3878   87.0727 H         4      M_A    0.0000
     34 H         215.5239  196.1319   86.9621 H         4      M_A    0.0000
     35 H         217.1456  195.8940   86.3267 H         4      M_A    0.0000
     36 C         217.0756  194.4933   88.3963 C.3       5      M_A    0.0000
     37 C         218.1475  193.9139   87.4779 C.3       5      M_A    0.0000
     38 O         218.0884  192.4875   87.4774 O.3       5      M_A    0.0000
     39 H         217.2161  194.1573   89.4291 H         5      M_A    0.0000
     40 H         216.0936  194.1386   88.0630 H         5      M_A    0.0000
     41 H         218.0362  194.3190   86.4618 H         5      M_A    0.0000
     42 H         219.1510  194.2010   87.8159 H         5      M_A    0.0000
     43 C         216.7605  192.0248   87.6168 C.3       6      M_A    0.0000
     44 C         216.2336  191.3959   86.3304 C.3       6      M_A    0.0000
     45 O         216.1975  189.9736   86.4469 O.3       6      M_A    0.0000
     46 H         216.7146  191.3163   88.4508 H         6      M_A    0.0000
     47 H         216.1300  192.8831   87.8760 H         6      M_A    0.0000
     48 H         215.2413  191.8026   86.0879 H         6      M_A    0.0000
     49 H         216.8826  191.6395   85.4799 H         6      M_A    0.0000
     50 C         215.3929  189.3925   85.4409 C.3       7      M_A    0.0000
     51 C         216.0312  188.1402   84.8473 C.3       7      M_A    0.0000
     52 O         215.4058  186.9661   85.3653 O.3       7      M_A    0.0000
     53 H         214.4039  189.1729   85.8569 H         7      M_A    0.0000
     54 H         215.2604  190.1343   84.6450 H         7      M_A    0.0000
     55 H         215.9773  188.1708   83.7495 H         7      M_A    0.0000
     56 H         217.0969  188.0843   85.1020 H         7      M_A    0.0000
     57 C         215.7129  185.8291   84.5843 C.3       8      M_A    0.0000
     58 C         216.9266  185.0754   85.1200 C.3       8      M_A    0.0000
     59 O         216.7110  183.6659   85.0511 O.3       8      M_A    0.0000
     60 H         214.8327  185.1791   84.5380 H         8      M_A    0.0000
     61 H         215.9282  186.1688   83.5647 H         8      M_A    0.0000
     62 H         217.8303  185.3692   84.5669 H         8      M_A    0.0000
     63 H         217.1131  185.3282   86.1713 H         8      M_A    0.0000
     64 C         217.9031  182.9750   84.7375 C.3       9      M_A    0.0000
     65 C         217.6665  181.4800   84.5449 C.3       9      M_A    0.0000
     66 O         218.5746  180.9499   83.5794 O.3       9      M_A    0.0000
     67 H         218.3511  183.4227   83.8441 H         9      M_A    0.0000
     68 H         218.6043  183.1189   85.5675 H         9      M_A    0.0000
     69 H         217.7541  180.9548   85.5069 H         9      M_A    0.0000
     70 H         216.6498  181.2873   84.1801 H         9      M_A    0.0000
     71 C         219.7326  180.4221   84.1937 C.3      10      M_A    0.0000
     72 C         220.6051  179.6513   83.2074 C.3      10      M_A    0.0000
     73 O         221.9348  180.1707   83.2035 O.3      10      M_A    0.0000
     74 H         220.2923  181.2387   84.6622 H        10      M_A    0.0000
     75 H         219.4110  179.7411   84.9900 H        10      M_A    0.0000
     76 H         220.5954  178.5789   83.4499 H        10      M_A    0.0000
     77 H         220.2149  179.7397   82.1858 H        10      M_A    0.0000
     78 C         222.6666  179.7102   82.0858 C.3      11      M_A    0.0000
     79 C         223.8399  178.8239   82.4932 C.3      11      M_A    0.0000
     80 O         224.0724  177.8172   81.5081 O.3      11      M_A    0.0000
     81 H         221.9883  179.1812   81.4079 H        11      M_A    0.0000
     82 H         223.0526  180.5860   81.5516 H        11      M_A    0.0000
     83 H         224.7381  179.4359   82.6592 H        11      M_A    0.0000
     84 H         223.6351  178.3134   83.4426 H        11      M_A    0.0000
     85 C         225.4340  177.4418   81.4636 C.3      12      M_A    0.0000
     86 C         225.6354  176.0921   80.7812 C.3      12      M_A    0.0000
     87 O         226.9110  176.0396   80.1424 O.3      12      M_A    0.0000
     88 H         226.0053  178.2287   80.9596 H        12      M_A    0.0000
     89 H         225.7993  177.3758   82.4949 H        12      M_A    0.0000
     90 H         225.5195  175.2772   81.5102 H        12      M_A    0.0000
     91 H         224.8742  175.9252   80.0089 H        12      M_A    0.0000
     92 C         227.9375  175.7271   81.0620 C.3      13      M_A    0.0000
     93 C         229.1509  175.1042   80.3782 C.3      13      M_A    0.0000
     94 O         230.1264  176.1036   80.0821 O.3      13      M_A    0.0000
     95 H         228.2147  176.6340   81.6099 H        13      M_A    0.0000
     96 H         227.5335  175.0119   81.7878 H        13      M_A    0.0000
     97 H         229.5733  174.3071   81.0069 H        13      M_A    0.0000
     98 H         228.8672  174.6309   79.4299 H        13      M_A    0.0000
     99 C         231.3843  175.5287   79.7925 C.3      14      M_A    0.0000
    100 C         231.2733  174.3733   78.8022 C.3      14      M_A    0.0000
    101 O         231.9469  174.6914   77.5844 O.3      14      M_A    0.0000
    102 H         232.0555  176.3083   79.4167 H        14      M_A    0.0000
    103 H         231.8068  175.1519   80.7311 H        14      M_A    0.0000
    104 H         231.6703  173.4506   79.2494 H        14      M_A    0.0000
    105 H         230.2245  174.1686   78.5537 H        14      M_A    0.0000
    106 C         232.8277  173.6572   77.1951 C.3      15      M_A    0.0000
    107 C         232.5379  173.1576   75.7828 C.3      15      M_A    0.0000
    108 O         233.7551  172.8773   75.0915 O.3      15      M_A    0.0000
    109 H         233.8593  174.0140   77.2842 H        15      M_A    0.0000
    110 H         232.7027  172.8257   77.8980 H        15      M_A    0.0000
    111 H         231.8861  172.2729   75.8195 H        15      M_A    0.0000
    112 H         231.9970  173.9149   75.2017 H        15      M_A    0.0000
    113 C         234.7690  172.4543   75.9802 C.3      16      M_A    0.0000
    114 C         235.2060  171.0174   75.7106 C.3      16      M_A    0.0000
    115 O         236.5497  170.9848   75.2297 O.3      16      M_A    0.0000
    116 H         235.6163  173.1448   75.9104 H        16      M_A    0.0000
    117 H         234.3720  172.5188   76.9997 H        16      M_A    0.0000
    118 H         235.0916  170.4091   76.6194 H        16      M_A    0.0000
    119 H         234.5721  170.5512   74.9460 H        16      M_A    0.0000
    120 C         237.4805  171.0682   76.2897 C.3      17      M_A    0.0000
    121 C         237.4584  169.8239   77.1725 C.3      17      M_A    0.0000
    122 O         238.1859  168.7608   76.5574 O.3      17      M_A    0.0000
    123 H         238.4795  171.2411   75.8753 H        17      M_A    0.0000
    124 H         237.2192  171.9405   76.8998 H        17      M_A    0.0000
    125 H         237.8591  170.0585   78.1691 H        17      M_A    0.0000
    126 H         236.4311  169.4716   77.3287 H        17      M_A    0.0000
    127 C         237.3223  167.7412   76.0977 C.3      18      M_A    0.0000
    128 C         238.0124  166.8072   75.1080 C.3      18      M_A    0.0000
    129 O         238.4841  165.6347   75.7719 O.3      18      M_A    0.0000
    130 H         236.9333  167.1872   76.9587 H        18      M_A    0.0000
    131 H         236.4713  168.2196   75.5995 H        18      M_A    0.0000
    132 H         237.3282  166.5531   74.2856 H        18      M_A    0.0000
    133 H         238.8802  167.2953   74.6472 H        18      M_A    0.0000
    134 C         239.1165  164.7490   74.8704 C.3      19      M_A    0.0000
    135 C         240.3965  165.3405   74.2872 C.3      19      M_A    0.0000
    136 O         241.4767  164.4154   74.4103 O.3      19      M_A    0.0000
    137 H         239.3162  163.8012   75.3815 H        19      M_A    0.0000
    138 H         238.4162  164.5435   74.0527 H        19      M_A    0.0000
    139 H         240.2367  165.6316   73.2391 H        19      M_A    0.0000
    140 H         240.6848  166.2550   74.8204 H        19      M_A    0.0000
    141 C         241.2678  163.2673   73.6133 C.3      20      M_A    0.0000
    142 C         242.5720  162.7218   73.0393 C.3      20      M_A    0.0000
    143 O         242.5644  161.2943   73.0482 O.3      20      M_A    0.0000
    144 H         240.7500  162.5081   74.2091 H        20      M_A    0.0000
    145 H         240.6059  163.5474   72.7858 H        20      M_A    0.0000
    146 H         242.7339  163.1145   72.0251 H        20      M_A    0.0000
    147 H         243.4315  163.0495   73.6373 H        20      M_A    0.0000
    148 C         243.2711  160.7665   71.9442 C.3      21      M_A    0.0000
    149 C         243.8642  159.3933   72.2455 C.3      21      M_A    0.0000
    150 O         243.7738  158.5467   71.0995 O.3      21      M_A    0.0000
    151 H         242.6024  160.7268   71.0777 H        21      M_A    0.0000
    152 H         244.0856  161.4592   71.7029 H        21      M_A    0.0000
    153 H         244.9046  159.4956   72.5860 H        21      M_A    0.0000
    154 H         243.3200  158.9010   73.0612 H        21      M_A    0.0000
    155 C         244.8225  158.7986   70.1865 C.3      22      M_A    0.0000
    156 C         245.5805  157.5267   69.8178 C.3      22      M_A    0.0000
    157 O         245.6472  157.3771   68.3997 O.3      22      M_A    0.0000
    158 H         244.4117  159.2861   69.2960 H        22      M_A    0.0000
    159 H         245.5184  159.5018   70.6582 H        22      M_A    0.0000
    160 H         246.5844  157.5396   70.2662 H        22      M_A    0.0000
    161 H         245.0757  156.6387   70.2184 H        22      M_A    0.0000
    162 C         245.8761  156.0321   68.0317 C.3      23      M_A    0.0000
    163 C         246.7054  155.9191   66.7559 C.3      23      M_A    0.0000
    164 O         247.8976  155.1723   66.9984 O.3      23      M_A    0.0000
    165 H         246.3596  155.5110   68.8648 H        23      M_A    0.0000
    166 H         244.9021  155.5580   67.8646 H        23      M_A    0.0000
    167 H         246.1063  155.4663   65.9527 H        23      M_A    0.0000
    168 H         247.0064  156.9102   66.3942 H        23      M_A    0.0000
    169 C         247.6315  154.0001   67.7414 C.3      24      M_A    0.0000
    170 C         248.3396  152.7794   67.1611 C.3      24      M_A    0.0000
    171 O         249.7293  152.8053   67.4863 O.3      24      M_A    0.0000
    172 H         247.9198  154.1654   68.7850 H        24      M_A    0.0000
    173 H         246.5496  153.8259   67.7200 H        24      M_A    0.0000
    174 H         247.8618  151.8568   67.5210 H        24      M_A    0.0000
    175 H         248.2584  152.7617   66.0671 H        24      M_A    0.0000
    176 C         250.4175  153.7862   66.7371 C.3      25      M_A    0.0000
    177 C         251.5265  153.1815   65.8811 C.3      25      M_A    0.0000
    178 O         251.6414  153.8823   64.6428 O.3      25      M_A    0.0000
    179 H         249.6977  154.3356   66.1211 H        25      M_A    0.0000
    180 H         250.8620  154.4981   67.4420 H        25      M_A    0.0000
    181 H         252.4774  153.1864   66.4331 H        25      M_A    0.0000
    182 H         251.3124  152.1315   65.6457 H        25      M_A    0.0000
    183 C         252.3992  155.0663   64.7869 C.3      26      M_A    0.0000
    184 C         252.6435  155.7580   63.4490 C.3      26      M_A    0.0000
    185 O         251.8900  156.9676   63.3660 O.3      26      M_A    0.0000
    186 H         251.8891  155.7337   65.4896 H        26      M_A    0.0000
    187 H         253.3654  154.7963   65.2281 H        26      M_A    0.0000
    188 H         253.7178  155.9458   63.3094 H        26      M_A    0.0000
    189 H         252.3314  155.1186   62.6137 H        26      M_A    0.0000
    190 C         252.4439  157.8581   62.4188 C.3      27      M_A    0.0000
    191 C         252.7353  157.1719   61.0875 C.3      27      M_A    0.0000
    192 O         251.9604  157.7585   60.0420 O.3      27      M_A    0.0000
    193 H         251.7642  158.7065   62.2858 H        27      M_A    0.0000
    194 H         253.3825  158.2467   62.8303 H        27      M_A    0.0000
    195 H         253.8107  157.2197   60.8633 H        27      M_A    0.0000
    196 H         252.4766  156.1065   61.1301 H        27      M_A    0.0000
    197 C         252.5800  157.5916   58.7829 C.3      28      M_A    0.0000
    198 C         253.2378  156.2219   58.6438 C.3      28      M_A    0.0000
    199 O         253.1458  155.7570   57.2972 O.3      28      M_A    0.0000
    200 H         251.8374  157.7554   57.9947 H        28      M_A    0.0000
    201 H         253.3486  158.3662   58.6803 H        28      M_A    0.0000
    202 H         254.2834  156.2672   58.9807 H        28      M_A    0.0000
    203 H         252.7403  155.4809   59.2819 H        28      M_A    0.0000
    204 C         253.5819  154.4179   57.1815 C.3      29      M_A    0.0000
    205 C         254.8167  154.2908   56.2942 C.3      29      M_A    0.0000
    206 O         255.5764  153.1376   56.6561 O.3      29      M_A    0.0000
    207 H         253.7713  154.0159   58.1825 H        29      M_A    0.0000
    208 H         252.7660  153.8348   56.7392 H        29      M_A    0.0000
    209 H         254.5217  154.2592   55.2355 H        29      M_A    0.0000
    210 H         255.4717  155.1639   56.4056 H        29      M_A    0.0000
    211 C         255.1026  151.9793   56.0000 C.3      30      M_A    0.0000
    212 C         255.3626  152.0237   54.4971 C.3      30      M_A    0.0000
    213 O         256.0849  150.8653   54.0797 O.3      30      M_A    0.0000
    214 H         255.5644  151.0966   56.4551 H        30      M_A    0.0000
    215 H         254.0220  151.9133   56.1710 H        30      M_A    0.0000
    216 H         254.4136  152.1218   53.9505 H        30      M_A    0.0000
    217 H         255.9648  152.9007   54.2287 H        30      M_A    0.0000
    218 C         255.7432  149.7351   54.8561 C.3      31      M_A    0.0000
    219 C         255.6222  148.4719   54.0090 C.3      31      M_A    0.0000
    220 O         256.5351  147.4738   54.4655 O.3      31      M_A    0.0000
    221 H         256.4869  149.6089   55.6501 H        31      M_A    0.0000
    222 H         254.7777  149.9347   55.3350 H        31      M_A    0.0000
    223 H         254.5865  148.1030   54.0234 H        31      M_A    0.0000
    224 H         255.8607  148.6794   52.9583 H        31      M_A    0.0000
    225 C         256.2471  146.2116   53.8992 C.3      32      M_A    0.0000
    226 C         257.2844  145.1602   54.2823 C.3      32      M_A    0.0000
    227 O         256.6913  143.8623   54.3199 O.3      32      M_A    0.0000
    228 H         255.2412  145.9040   54.2044 H        32      M_A    0.0000
    229 H         256.2426  146.3244   52.8090 H        32      M_A    0.0000
    230 H         258.1329  145.1921   53.5838 H        32      M_A    0.0000
    231 H         257.6978  145.3614   55.2785 H        32      M_A    0.0000
    232 C         255.3914  143.8715   53.7657 C.3      33      M_A    0.0000
    233 C         255.1357  142.6547   52.8812 C.3      33      M_A    0.0000
    234 O         254.0628  141.8721   53.4046 O.3      33      M_A    0.0000
    235 H         254.6576  143.9319   54.5765 H        33      M_A    0.0000
    236 H         255.2902  144.7785   53.1588 H        33      M_A    0.0000
    237 H         254.9322  142.9724   51.8484 H        33      M_A    0.0000
    238 H         256.0217  142.0091   52.8360 H        33      M_A    0.0000
    239 C         254.2800  140.4914   53.1961 C.3      34      M_A    0.0000
    240 C         252.9870  139.6865   53.2877 C.3      34      M_A    0.0000
    241 O         252.9706  138.6522   52.3040 O.3      34      M_A    0.0000
    242 H         254.7665  140.3488   52.2253 H        34      M_A    0.0000
    243 H         254.9727  140.1388   53.9689 H        34      M_A    0.0000
    244 H         252.8660  139.2768   54.3008 H        34      M_A    0.0000
    245 H         252.1134  140.3253   53.1073 H        34      M_A    0.0000
    246 C         252.6850  137.3942   52.8809 C.3      35      M_A    0.0000
    247 C         251.4675  136.7327   52.2420 C.3      35      M_A    0.0000
    248 O         251.7055  135.3405   52.0346 O.3      35      M_A    0.0000
    249 H         253.5704  136.7546   52.8000 H        35      M_A    0.0000
    250 H         252.4850  137.5500   53.9472 H        35      M_A    0.0000
    251 H         250.5759  136.8976   52.8639 H        35      M_A    0.0000
    252 H         251.2472  137.1777   51.2636 H        35      M_A    0.0000
    253 C         250.6694  134.7454   51.2801 C.3      36      M_A    0.0000
    254 C         250.9426  133.2722   50.9917 C.3      36      M_A    0.0000
    255 O         249.7596  132.6266   50.5211 O.3      36      M_A    0.0000
    256 H         249.7206  134.8748   51.8117 H        36      M_A    0.0000
    257 H         250.5927  135.2846   50.3290 H        36      M_A    0.0000
    258 H         251.7663  133.1731   50.2701 H        36      M_A    0.0000
    259 H         251.2640  132.7474   51.9000 H        36      M_A    0.0000
    260 C         250.0395  131.3352   50.0202 C.3      37      M_A    0.0000
    261 C         250.7315  130.4550   51.0567 C.3      37      M_A    0.0000
    262 O         250.5826  129.0754   50.7213 O.3      37      M_A    0.0000
    263 H         249.1076  130.8774   49.6716 H        37      M_A    0.0000
    264 H         250.6992  131.4462   49.1520 H        37      M_A    0.0000
    265 H         251.7917  130.7332   51.1438 H        37      M_A    0.0000
    266 H         250.2921  130.6004   52.0515 H        37      M_A    0.0000
    267 C         250.2370  128.9082   49.3614 C.3      38      M_A    0.0000
    268 C         251.2770  128.0908   48.6009 C.3      38      M_A    0.0000
    269 O         250.6796  126.9258   48.0318 O.3      38      M_A    0.0000
    270 H         249.2468  128.4444   49.2987 H        38      M_A    0.0000
    271 H         250.1663  129.9030   48.9068 H        38      M_A    0.0000
    272 H         251.7577  128.7107   47.8304 H        38      M_A    0.0000
    273 H         252.0787  127.7551   49.2705 H        38      M_A    0.0000
    274 C         251.3450  126.5280   46.8503 C.3      39      M_A    0.0000
    275 C         252.0540  125.1869   47.0144 C.3      39      M_A    0.0000
    276 O         251.6565  124.2814   45.9850 O.3      39      M_A    0.0000
    277 H         250.6231  126.4954   46.0273 H        39      M_A    0.0000
    278 H         252.0893  127.2952   46.6081 H        39      M_A    0.0000
    279 H         253.1439  125.3321   47.0204 H        39      M_A    0.0000
    280 H         251.7996  124.7235   47.9758 H        39      M_A    0.0000
    281 C         252.0000  122.9490   46.3071 C.3      40      M_A    0.0000
    282 C         251.0150  121.9437   45.7177 C.3      40      M_A    0.0000
    283 O         251.6257  121.2069   44.6584 O.3      40      M_A    0.0000
    284 H         253.0208  122.7502   45.9637 H        40      M_A    0.0000
    285 H         251.9931  122.8538   47.3989 H        40      M_A    0.0000
    286 H         250.6388  121.2747   46.5050 H        40      M_A    0.0000
    287 H         250.1372  122.4526   45.3003 H        40      M_A    0.0000
    288 C         251.1058  119.8956   44.5737 C.3      41      M_A    0.0000
    289 C         249.7220  119.8670   43.9315 C.3      41      M_A    0.0000
    290 O         249.8054  119.4055   42.5832 O.3      41      M_A    0.0000
    291 H         251.8113  119.2665   44.0206 H        41      M_A    0.0000
    292 H         251.0326  119.4957   45.5916 H        41      M_A    0.0000
    293 H         249.0403  119.2424   44.5266 H        41      M_A    0.0000
    294 H         249.2791  120.8706   43.9084 H        41      M_A    0.0000
    295 C         248.5263  119.3041   41.9912 C.3      42      M_A    0.0000
    296 C         248.5240  119.7856   40.5434 C.3      42      M_A    0.0000
    297 O         247.6831  118.9563   39.7415 O.3      42      M_A    0.0000
    298 H         248.1801  118.2676   42.0637 H        42      M_A    0.0000
    299 H         247.8356  119.9256   42.5726 H        42      M_A    0.0000
    300 H         248.2113  120.8386   40.4941 H        42      M_A    0.0000
    301 H         249.5328  119.7434   40.1140 H        42      M_A    0.0000
    302 C         246.9108  119.7217   38.8390 C.3      43      M_A    0.0000
    303 C         245.9675  118.8539   38.0112 C.3      43      M_A    0.0000
    304 O         244.6125  119.0716   38.4045 O.3      43      M_A    0.0000
    305 H         246.3580  120.4837   39.3987 H        43      M_A    0.0000
    306 H         247.5993  120.2415   38.1629 H        43      M_A    0.0000
    307 H         246.1099  119.0540   36.9395 H        43      M_A    0.0000
    308 H         246.1847  117.7884   38.1571 H        43      M_A    0.0000
    309 C         243.8563  117.8798   38.3361 C.3      44      M_A    0.0000
    310 C         242.9180  117.8635   37.1330 C.3      44      M_A    0.0000
    311 O         243.0121  116.6179   36.4419 O.3      44      M_A    0.0000
    312 H         244.5392  117.0239   38.3165 H        44      M_A    0.0000
    313 H         243.2593  117.8066   39.2524 H        44      M_A    0.0000
    314 H         241.8860  118.0658   37.4539 H        44      M_A    0.0000
    315 H         243.1798  118.6553   36.4202 H        44      M_A    0.0000
    316 C         242.9828  115.5257   37.3380 C.3      45      M_A    0.0000
    317 C         241.8944  114.5181   36.9797 C.3      45      M_A    0.0000
    318 O         242.4715  113.3275   36.4437 O.3      45      M_A    0.0000
    319 H         243.9700  115.0516   37.3559 H        45      M_A    0.0000
    320 H         242.7856  115.9187   38.3419 H        45      M_A    0.0000
    321 H         241.2741  114.3001   37.8610 H        45      M_A    0.0000
    322 H         241.2168  114.9260   36.2193 H        45      M_A    0.0000
    323 C         241.5233  112.5771   35.7124 C.3      46      M_A    0.0000
    324 C         241.1758  113.2337   34.3797 C.3      46      M_A    0.0000
    325 O         240.4383  112.3318   33.5546 O.3      46      M_A    0.0000
    326 H         241.9078  111.5623   35.5647 H        46      M_A    0.0000
    327 H         240.6132  112.5017   36.3185 H        46      M_A    0.0000
    328 H         240.6189  114.1663   34.5499 H        46      M_A    0.0000
    329 H         242.0840  113.5130   33.8310 H        46      M_A    0.0000
    330 C         239.2792  111.8604   34.2111 C.3      47      M_A    0.0000
    331 C         238.1573  111.5322   33.2304 C.3      47      M_A    0.0000
    332 O         237.9642  110.1203   33.1452 O.3      47      M_A    0.0000
    333 H         239.5422  110.9872   34.8176 H        47      M_A    0.0000
    334 H         238.9352  112.6463   34.8933 H        47      M_A    0.0000
    335 H         237.2313  112.0452   33.5276 H        47      M_A    0.0000
    336 H         238.3991  111.8921   32.2226 H        47      M_A    0.0000
    337 C         237.6142  109.7243   31.8346 C.3      48      M_A    0.0000
    338 C         237.9574  108.2621   31.5658 C.3      48      M_A    0.0000
    339 O         236.7672  107.4859   31.4281 O.3      48      M_A    0.0000
    340 H         236.5475  109.9156   31.6764 H        48      M_A    0.0000
    341 H         238.1717  110.3543   31.1321 H        48      M_A    0.0000
    342 H         238.5941  108.1796   30.6732 H        48      M_A    0.0000
    343 H         238.5338  107.8351   32.3959 H        48      M_A    0.0000
    344 C         237.0108  106.1168   31.6794 C.3      49      M_A    0.0000
    345 C         235.8055  105.2467   31.3353 C.3      49      M_A    0.0000
    346 O         235.9567  104.6730   30.0369 O.3      49      M_A    0.0000
    347 H         237.8978  105.8029   31.1190 H        49      M_A    0.0000
    348 H         237.2359  106.0048   32.7462 H        49      M_A    0.0000
    349 H         235.6666  104.4705   32.1017 H        49      M_A    0.0000
    350 H         234.8826  105.8399   31.3269 H        49      M_A    0.0000
    351 C         235.4241  103.3652   29.9840 C.3      50      M_A    0.0000
    352 C         233.9081  103.3554   30.1568 C.3      50      M_A    0.0000
    353 O         233.2591  103.4480   28.8887 O.3      50      M_A    0.0000
    354 H         235.7170  102.8980   29.0377 H        50      M_A    0.0000
    355 H         235.8772  102.7837   30.7950 H        50      M_A    0.0000
    356 H         233.5941  102.4535   30.7018 H        50      M_A    0.0000
    357 H         233.5761  104.2103   30.7590 H        50      M_A    0.0000
    358 C         233.4178  104.7314   28.3190 C.3      51      M_A    0.0000
    359 C         232.2821  105.0788   27.3611 C.3      51      M_A    0.0000
    360 O         231.1340  105.5208   28.0853 O.3      51      M_A    0.0000
    361 H         233.4978  105.4716   29.1223 H        51      M_A    0.0000
    362 H         234.3637  104.7397   27.7654 H        51      M_A    0.0000
    363 H         232.6145  105.8368   26.6373 H        51      M_A    0.0000
    364 H         231.9823  104.2022   26.7733 H        51      M_A    0.0000
    365 C         230.4664  104.4407   28.7056 C.3      52      M_A    0.0000
    366 C         229.0256  104.3028   28.2226 C.3      52      M_A    0.0000
    367 O         228.6117  102.9372   28.2661 O.3      52      M_A    0.0000
    368 H         231.0329  103.5205   28.5272 H        52      M_A    0.0000
    369 H         230.4621  104.6231   29.7863 H        52      M_A    0.0000
    370 H         228.3614  104.9412   28.8227 H        52      M_A    0.0000
    371 H         228.9252  104.6435   27.1845 H        52      M_A    0.0000
    372 C         227.3507  102.7592   27.6538 C.3      53      M_A    0.0000
    373 C         226.2949  102.2760   28.6437 C.3      53      M_A    0.0000
    374 O         225.1732  103.1589   28.6498 O.3      53      M_A    0.0000
    375 H         227.0476  103.6991   27.1801 H        53      M_A    0.0000
    376 H         227.4633  102.0101   26.8618 H        53      M_A    0.0000
    377 H         225.9922  101.2466   28.4033 H        53      M_A    0.0000
    378 H         226.6969  102.2485   29.6642 H        53      M_A    0.0000
    379 C         224.5009  103.1497   27.4069 C.3      54      M_A    0.0000
    380 C         223.0020  103.3885   27.5632 C.3      54      M_A    0.0000
    381 O         222.3010  102.9473   26.4005 O.3      54      M_A    0.0000
    382 H         224.9542  103.8995   26.7499 H        54      M_A    0.0000
    383 H         224.6573  102.1674   26.9465 H        54      M_A    0.0000
    384 H         222.6302  102.8873   28.4684 H        54      M_A    0.0000
    385 H         222.7859  104.4564   27.6915 H        54      M_A    0.0000
    386 C         221.1169  103.6913   26.1970 C.3      55      M_A    0.0000
    387 C         219.9122  102.7925   25.9340 C.3      55      M_A    0.0000
    388 O         218.9446  102.9357   26.9737 O.3      55      M_A    0.0000
    389 H         220.9467  104.3365   27.0654 H        55      M_A    0.0000
    390 H         221.2719  104.3400   25.3273 H        55      M_A    0.0000
    391 H         219.4778  103.0186   24.9495 H        55      M_A    0.0000
    392 H         220.2091  101.7367   25.9046 H        55      M_A    0.0000
    393 C         217.8259  102.0997   26.7578 C.3      56      M_A    0.0000
    394 C         216.5080  102.8538   26.9087 C.3      56      M_A    0.0000
    395 O         215.4819  102.2270   26.1392 O.3      56      M_A    0.0000
    396 H         217.9081  101.6418   25.7663 H        56      M_A    0.0000
    397 H         217.8598  101.2932   27.4992 H        56      M_A    0.0000
    398 H         216.2281  102.9201   27.9699 H        56      M_A    0.0000
    399 H         216.6033  103.8863   26.5501 H        56      M_A    0.0000
    400 C         215.6809  100.8308   26.0516 C.3      57      M_A    0.0000
    401 C         214.3622  100.0645   26.0079 C.3      57      M_A    0.0000
    402 O         214.2493   99.3317   24.7880 O.3      57      M_A    0.0000
    403 H         216.2946  100.6119   25.1713 H        57      M_A    0.0000
    404 H         216.2455  100.5146   26.9362 H        57      M_A    0.0000
    405 H         214.2791   99.4019   26.8815 H        57      M_A    0.0000
    406 H         213.5076  100.7506   26.0593 H        57      M_A    0.0000
    407 C         214.9564   98.1099   24.8512 C.3      58      M_A    0.0000
    408 C         214.0235   96.9149   25.0240 C.3      58      M_A    0.0000
    409 O         213.4503   96.5421   23.7708 O.3      58      M_A    0.0000
    410 H         215.5702   98.0052   23.9502 H        58      M_A    0.0000
    411 H         215.6348   98.1573   25.7107 H        58      M_A    0.0000
    412 H         214.5644   96.0744   25.4821 H        58      M_A    0.0000
    413 H         213.1973   97.1570   25.7041 H        58      M_A    0.0000
    414 C         212.2735   97.2765   23.5015 C.3      59      M_A    0.0000
    415 C         211.0492   96.3742   23.3783 C.3      59      M_A    0.0000
    416 O         209.8820   97.0470   23.8503 O.3      59      M_A    0.0000
    417 H         212.1335   98.0277   24.2861 H        59      M_A    0.0000
    418 H         212.4180   97.8092   22.5546 H        59      M_A    0.0000
    419 H         210.9258   96.0419   22.3375 H        59      M_A    0.0000
    420 H         211.1699   95.4645   23.9798 H        59      M_A    0.0000
    421 C         208.8603   97.0568   22.8742 C.3      60      M_A    0.0000
    422 C         207.4714   96.9429   23.4957 C.3      60      M_A    0.0000
    423 O         206.4934   97.5473   22.6495 O.3      60      M_A    0.0000
    424 H         208.9503   97.9669   22.2717 H        60      M_A    0.0000
    425 H         209.0221   96.2013   22.2085 H        60      M_A    0.0000
    426 H         207.2305   95.8889   23.6958 H        60      M_A    0.0000
    427 H         207.4312   97.4573   24.4639 H        60      M_A    0.0000
    428 C         205.5923   96.5888   22.1337 C.3      61      M_A    0.0000
    429 C         204.1396   96.9472   22.4327 C.3      61      M_A    0.0000
    430 O         203.3420   96.8275   21.2548 O.3      61      M_A    0.0000
    431 H         205.7599   96.4840   21.0565 H        61      M_A    0.0000
    432 H         205.8227   95.6243   22.6004 H        61      M_A    0.0000
    433 H         203.7519   96.3146   23.2442 H        61      M_A    0.0000
    434 H         204.0550   97.9836   22.7828 H        61      M_A    0.0000
    435 C         201.9636   96.7954   21.5647 C.3      62      M_A    0.0000
    436 C         201.5528   97.9488   22.4752 C.3      62      M_A    0.0000
    437 O         200.1478   98.1836   22.3826 O.3      62      M_A    0.0000
    438 H         201.3877   96.8027   20.6331 H        62      M_A    0.0000
    439 H         201.7551   95.8485   22.0758 H        62      M_A    0.0000
    440 H         201.8560   97.7407   23.5114 H        62      M_A    0.0000
    441 H         202.0608   98.8773   22.1861 H        62      M_A    0.0000
    442 C         199.4323   97.4223   23.3340 C.3      63      M_A    0.0000
    443 C         197.9457   97.7660   23.3439 C.3      63      M_A    0.0000
    444 O         197.1862   96.7202   22.7378 O.3      63      M_A    0.0000
    445 H         199.5905   96.3576   23.1318 H        63      M_A    0.0000
    446 H         199.8526   97.6379   24.3230 H        63      M_A    0.0000
    447 H         197.6081   97.9613   24.3719 H        63      M_A    0.0000
    448 H         197.7514   98.6845   22.7761 H        63      M_A    0.0000
    449 C         195.8815   97.1522   22.4090 C.3      64      M_A    0.0000
    450 C         195.8766   98.1134   21.2239 C.3      64      M_A    0.0000
    451 O         194.6975   97.9345   20.4393 O.3      64      M_A    0.0000
    452 H         195.2545   96.2765   22.2103 H        64      M_A    0.0000
    453 H         195.4661   97.6657   23.2837 H        64      M_A    0.0000
    454 H         195.9689   99.1508   21.5763 H        64      M_A    0.0000
    455 H         196.7379   97.9329   20.5685 H        64      M_A    0.0000
    456 C         194.6717   98.8169   19.3359 C.3      65      M_A    0.0000
    457 C         193.2541   99.2635   18.9910 C.3      65      M_A    0.0000
    458 O         193.0680  100.6394   19.3232 O.3      65      M_A    0.0000
    459 H         195.3157   99.6764   19.5506 H        65      M_A    0.0000
    460 H         195.0974   98.2909   18.4737 H        65      M_A    0.0000
    461 H         193.0456   99.0772   17.9276 H        65      M_A    0.0000
    462 H         192.5120   98.6858   19.5562 H        65      M_A    0.0000
    463 C         191.7380  100.8994   19.7237 C.3      66      M_A    0.0000
    464 C         191.2990  100.0003   20.8756 C.3      66      M_A    0.0000
    465 O         190.4191  100.7038   21.7524 O.3      66      M_A    0.0000
    466 H         191.6457  101.9576   19.9908 H        66      M_A    0.0000
    467 H         191.0850  100.7168   18.8626 H        66      M_A    0.0000
    468 H         190.8284   99.0864   20.4856 H        66      M_A    0.0000
    469 H         192.1619   99.6732   21.4692 H        66      M_A    0.0000
    470 C         189.7202   99.8185   22.6035 C.3      67      M_A    0.0000
    471 C         189.1092  100.5373   23.8027 C.3      67      M_A    0.0000
    472 O         187.6935  100.3558   23.8271 O.3      67      M_A    0.0000
    473 H         188.9526   99.2958   22.0228 H        67      M_A    0.0000
    474 H         190.4313   99.0669   22.9651 H        67      M_A    0.0000
    475 H         189.5738  100.1835   24.7344 H        67      M_A    0.0000
    476 H         189.3013  101.6164   23.7532 H        67      M_A    0.0000
    477 C         187.1511  100.6874   25.0891 C.3      68      M_A    0.0000
    478 C         185.6880  101.1094   24.9923 C.3      68      M_A    0.0000
    479 O         184.8863  100.3461   25.8937 O.3      68      M_A    0.0000
    480 H         187.2727   99.8347   25.7655 H        68      M_A    0.0000
    481 H         187.7341  101.5206   25.4981 H        68      M_A    0.0000
    482 H         185.5905  102.1875   25.1852 H        68      M_A    0.0000
    483 H         185.2968  100.9407   23.9813 H        68      M_A    0.0000
    484 C         183.7219   99.8550   25.2613 C.3      69      M_A    0.0000
    485 C         183.0733   98.7226   26.0521 C.3      69      M_A    0.0000
    486 O         181.7167   99.0415   26.3616 O.3      69      M_A    0.0000
    487 H         183.0213  100.6830   25.1097 H        69      M_A    0.0000
    488 H         184.0087   99.4782   24.2729 H        69      M_A    0.0000
    489 H         183.1445   97.7792   25.4918 H        69      M_A    0.0000
    490 H         183.5968   98.5571   27.0020 H        69      M_A    0.0000
    491 C         181.0647   97.9628   27.0005 C.3      70      M_A    0.0000
    492 C         179.5516   98.1536   27.0483 C.3      70      M_A    0.0000
    493 O         178.8830   96.9356   26.7206 O.3      70      M_A    0.0000
    494 H         181.3297   97.0314   26.4889 H        70      M_A    0.0000
    495 H         181.4465   97.8979   28.0259 H        70      M_A    0.0000
    496 H         179.2468   98.5233   28.0379 H        70      M_A    0.0000
    497 H         179.2283   98.9111   26.3234 H        70      M_A    0.0000
    498 C         177.4791   97.0955   26.7377 C.3      71      M_A    0.0000
    499 C         176.7478   95.7672   26.5668 C.3      71      M_A    0.0000
    500 O         175.4934   95.7953   27.2476 O.3      71      M_A    0.0000
    501 H         177.1870   97.5904   27.6700 H        71      M_A    0.0000
    502 H         177.2055   97.7599   25.9100 H        71      M_A    0.0000
    503 H         176.6181   95.5401   25.4988 H        71      M_A    0.0000
    504 H         177.3323   94.9402   26.9888 H        71      M_A    0.0000
    505 C         174.4211   95.5262   26.3676 C.3      72      M_A    0.0000
    506 C         173.1047   95.3230   27.1118 C.3      72      M_A    0.0000
    507 O         172.0475   96.0271   26.4601 O.3      72      M_A    0.0000
    508 H         174.3424   96.3413   25.6404 H        72      M_A    0.0000
    509 H         174.6606   94.6107   25.8145 H        72      M_A    0.0000
    510 H         172.8781   94.2505   27.1964 H        72      M_A    0.0000
    511 H         173.1707   95.7059   28.1379 H        72      M_A    0.0000
    512 C         170.9870   96.3079   27.3508 C.3      73      M_A    0.0000
    513 C         169.6487   96.4327   26.6287 C.3      73      M_A    0.0000
    514 O         168.8000   95.3318   26.9539 O.3      73      M_A    0.0000
    515 H         170.9503   95.5288   28.1196 H        73      M_A    0.0000
    516 H         171.2097   97.2572   27.8512 H        73      M_A    0.0000
    517 H         169.1718   97.3920   26.8765 H        73      M_A    0.0000
    518 H         169.7879   96.4299   25.5404 H        73      M_A    0.0000
    519 C         167.8086   95.1338   25.9666 C.3      74      M_A    0.0000
    520 C         166.4005   95.1576   26.5540 C.3      74      M_A    0.0000
    521 O         165.4967   95.8088   25.6613 O.3      74      M_A    0.0000
    522 H         167.9243   95.8938   25.1865 H        74      M_A    0.0000
    523 H         167.9836   94.1554   25.5047 H        74      M_A    0.0000
    524 H         166.0681   94.1351   26.7842 H        74      M_A    0.0000
    525 H         166.3801   95.7090   27.5023 H        74      M_A    0.0000
    526 C         164.3725   96.3218   26.3466 C.3      75      M_A    0.0000
    527 C         163.1440   96.4139   25.4463 C.3      75      M_A    0.0000
    528 O         161.9604   96.1030   26.1813 O.3      75      M_A    0.0000
    529 H         164.1734   95.6975   27.2242 H        75      M_A    0.0000
    530 H         164.6256   97.3262   26.7049 H        75      M_A    0.0000
    531 H         163.0813   97.4128   24.9910 H        75      M_A    0.0000
    532 H         163.2118   95.7004   24.6156 H        75      M_A    0.0000
    533 C         160.8360   96.0000   25.3316 C.3      76      M_A    0.0000
    534 C         159.5862   95.5541   26.0847 C.3      76      M_A    0.0000
    535 O         159.0296   96.6438   26.8201 O.3      76      M_A    0.0000
    536 H         160.6752   96.9620   24.8334 H        76      M_A    0.0000
    537 H         161.0659   95.2598   24.5567 H        76      M_A    0.0000
    538 H         158.8530   95.1282   25.3847 H        76      M_A    0.0000
    539 H         159.8233   94.7598   26.8035 H        76      M_A    0.0000
    540 C         159.7540   96.8895   28.0083 C.3      77      M_A    0.0000
    541 C         158.8840   96.7387   29.2527 C.3      77      M_A    0.0000
    542 O         159.6414   96.1858   30.3290 O.3      77      M_A    0.0000
    543 H         160.6175   96.2169   28.0459 H        77      M_A    0.0000
    544 H         160.1351   97.9162   27.9644 H        77      M_A    0.0000
    545 H         158.4456   97.7085   29.5290 H        77      M_A    0.0000
    546 H         158.0410   96.0625   29.0628 H        77      M_A    0.0000
    547 C         158.9067   96.1935   31.5360 C.3      78      M_A    0.0000
    548 C         159.7016   96.8010   32.6881 C.3      78      M_A    0.0000
    549 O         158.8399   97.5336   33.5591 O.3      78      M_A    0.0000
    550 H         157.9657   96.7312   31.3782 H        78      M_A    0.0000
    551 H         158.6576   95.1557   31.7855 H        78      M_A    0.0000
    552 H         160.2441   96.0140   33.2314 H        78      M_A    0.0000
    553 H         160.4621   97.4985   32.3155 H        78      M_A    0.0000
    554 C         157.5508   96.9575   33.6160 C.3      79      M_A    0.0000
    555 C         157.3144   96.2072   34.9234 C.3      79      M_A    0.0000
    556 O         156.1645   96.7218   35.5949 O.3      79      M_A    0.0000
    557 H         156.8016   97.7430   33.4700 H        79      M_A    0.0000
    558 H         157.4594   96.2530   32.7814 H        79      M_A    0.0000
    559 H         157.2154   95.1294   34.7298 H        79      M_A    0.0000
    560 H         158.1693   96.3212   35.6016 H        79      M_A    0.0000
    561 C         155.7115   95.8354   36.5979 C.3      80      M_A    0.0000
    562 C         155.6024   96.5162   37.9591 C.3      80      M_A    0.0000
    563 O         154.2331   96.7020   38.3174 O.3      80      M_A    0.0000
    564 H         154.7504   95.4095   36.2908 H        80      M_A    0.0000
    565 H         156.4311   95.0119   36.6700 H        80      M_A    0.0000
    566 H         156.1391   95.9314   38.7199 H        80      M_A    0.0000
    567 H         156.0747   97.5064   37.9418 H        80      M_A    0.0000
    568 C         154.0968   97.6263   39.3775 C.3      81      M_A    0.0000
    569 C         153.6265   98.9936   38.8902 C.3      81      M_A    0.0000
    570 O         152.2119   99.1177   39.0366 O.3      81      M_A    0.0000
    571 H         153.4093   97.2149   40.1243 H        81      M_A    0.0000
    572 H         155.0768   97.7381   39.8553 H        81      M_A    0.0000
    573 H         154.1559   99.7917   39.4302 H        81      M_A    0.0000
    574 H         153.8602   99.1333   37.8274 H        81      M_A    0.0000
    575 C         151.7089  100.2096   38.2939 C.3      82      M_A    0.0000
    576 C         150.6320   99.7815   37.3013 C.3      82      M_A    0.0000
    577 O         149.4813  100.6179   37.4197 O.3      82      M_A    0.0000
    578 H         151.3290  100.9682   38.9865 H        82      M_A    0.0000
    579 H         152.5442  100.6543   37.7409 H        82      M_A    0.0000
    580 H         151.0326   99.7950   36.2775 H        82      M_A    0.0000
    581 H         150.3097   98.7503   37.4924 H        82      M_A    0.0000
    582 C         149.5240  101.6896   36.4997 C.3      83      M_A    0.0000
    583 C         148.1403  102.0379   35.9592 C.3      83      M_A    0.0000
    584 O         147.6507  103.2321   36.5692 O.3      83      M_A    0.0000
    585 H         149.9897  102.5559   36.9816 H        83      M_A    0.0000
    586 H         150.1663  101.3905   35.6635 H        83      M_A    0.0000
    587 H         148.1734  102.1328   34.8643 H        83      M_A    0.0000
    588 H         147.4210  101.2387   36.1776 H        83      M_A    0.0000
    589 C         146.3019  103.4738   36.2239 C.3      84      M_A    0.0000
    590 C         145.7180  104.6600   36.9855 C.3      84      M_A    0.0000
    591 O         144.9402  105.4805   36.1140 O.3      84      M_A    0.0000
    592 H         146.2319  103.6258   35.1415 H        84      M_A    0.0000
    593 H         145.7247  102.5753   36.4704 H        84      M_A    0.0000
    594 H         145.1222  104.3066   37.8394 H        84      M_A    0.0000
    595 H         146.5142  105.2880   37.4044 H        84      M_A    0.0000
    596 C         143.6189  105.6344   36.5907 C.3      85      M_A    0.0000
    597 C         143.5794  106.2664   37.9789 C.3      85      M_A    0.0000
    598 O         142.7591  107.4347   37.9738 O.3      85      M_A    0.0000
    599 H         143.0457  106.2273   35.8700 H        85      M_A    0.0000
    600 H         143.1608  104.6399   36.6407 H        85      M_A    0.0000
    601 H         143.2273  105.5339   38.7195 H        85      M_A    0.0000
    602 H         144.5832  106.5712   38.3002 H        85      M_A    0.0000
    603 C         141.4336  107.1343   37.5868 C.3      86      M_A    0.0000
    604 C         140.4179  107.5488   38.6473 C.3      86      M_A    0.0000
    605 O         139.1427  106.9689   38.3728 O.3      86      M_A    0.0000
    606 H         141.2231  107.6185   36.6272 H        86      M_A    0.0000
    607 H         141.3645  106.0512   37.4338 H        86      M_A    0.0000
    608 H         140.7778  107.2682   39.6477 H        86      M_A    0.0000
    609 H         140.2873  108.6381   38.6614 H        86      M_A    0.0000
    610 C         138.2177  107.2406   39.4060 C.3      87      M_A    0.0000
    611 C         138.1169  108.7328   39.7085 C.3      87      M_A    0.0000
    612 O         137.3864  108.9505   40.9155 O.3      87      M_A    0.0000
    613 H         137.2421  106.8264   39.1302 H        87      M_A    0.0000
    614 H         138.5567  106.7181   40.3078 H        87      M_A    0.0000
    615 H         139.1209  109.1777   39.7630 H        87      M_A    0.0000
    616 H         137.5888  109.2614   38.9050 H        87      M_A    0.0000
    617 C         138.2174  109.4611   41.9380 C.3      88      M_A    0.0000
    618 C         137.5198  109.4677   43.2950 C.3      88      M_A    0.0000
    619 O         138.4799  109.4566   44.3514 O.3      88      M_A    0.0000
    620 H         139.1427  108.8762   41.9720 H        88      M_A    0.0000
    621 H         138.4853  110.4901   41.6721 H        88      M_A    0.0000
    622 H         136.8495  110.3358   43.3730 H        88      M_A    0.0000
    623 H         136.8880  108.5789   43.4160 H        88      M_A    0.0000
    624 C         137.9115  109.8867   45.5715 C.3      89      M_A    0.0000
    625 C         138.6417  111.0948   46.1507 C.3      89      M_A    0.0000
    626 O         137.7357  111.9275   46.8744 O.3      89      M_A    0.0000
    627 H         136.8498  110.1047   45.4140 H        89      M_A    0.0000
    628 H         137.9773  109.0572   46.2849 H        89      M_A    0.0000
    629 H         139.4762  110.7652   46.7861 H        89      M_A    0.0000
    630 H         139.0839  111.7055   45.3537 H        89      M_A    0.0000
    631 C         136.6537  111.1834   47.3964 C.3      90      M_A    0.0000
    632 C         136.5751  111.2745   48.9175 C.3      90      M_A    0.0000
    633 O         135.2146  111.3345   49.3456 O.3      90      M_A    0.0000
    634 H         135.7246  111.5293   46.9312 H        90      M_A    0.0000
    635 H         136.7971  110.1349   47.1110 H        90      M_A    0.0000
    636 H         137.1016  110.4253   49.3763 H        90      M_A    0.0000
    637 H         137.0747  112.1805   49.2829 H        90      M_A    0.0000
    638 C         135.0467  110.7457   50.6192 C.3      91      M_A    0.0000
    639 C         136.1642  111.1338   51.5829 C.3      91      M_A    0.0000
    640 O         135.6587  111.2556   52.9124 O.3      91      M_A    0.0000
    641 H         134.0660  111.0279   51.0169 H        91      M_A    0.0000
    642 H         135.0515  109.6573   50.4906 H        91      M_A    0.0000
    643 H         136.9815  110.4001   51.5315 H        91      M_A    0.0000
    644 H         136.6014  112.1018   51.3078 H        91      M_A    0.0000
    645 C         135.3257  109.9947   53.4567 C.3      92      M_A    0.0000
    646 C         135.8126  109.8435   54.8948 C.3      92      M_A    0.0000
    647 O         134.7833  109.2925   55.7163 O.3      92      M_A    0.0000
    648 H         134.2421  109.8512   53.3891 H        92      M_A    0.0000
    649 H         135.8013  109.2246   52.8385 H        92      M_A    0.0000
    650 H         136.7217  109.2257   54.9247 H        92      M_A    0.0000
    651 H         136.0873  110.8166   55.3207 H        92      M_A    0.0000
    652 C         134.4556  107.9759   55.3215 C.3      93      M_A    0.0000
    653 C         134.1922  107.0665   56.5180 C.3      93      M_A    0.0000
    654 O         132.8975  106.4731   56.4203 O.3      93      M_A    0.0000
    655 H         133.5897  108.0087   54.6518 H        93      M_A    0.0000
    656 H         135.3010  107.5749   54.7508 H        93      M_A    0.0000
    657 H         134.9781  106.3012   56.5934 H        93      M_A    0.0000
    658 H         134.2236  107.6337   57.4567 H        93      M_A    0.0000
    659 C         132.8143  105.2850   57.1808 C.3      94      M_A    0.0000
    660 C         132.7996  105.5634   58.6809 C.3      94      M_A    0.0000
    661 O         132.0450  104.5650   59.3678 O.3      94      M_A    0.0000
    662 H         131.9241  104.7257   56.8737 H        94      M_A    0.0000
    663 H         133.6902  104.6705   56.9428 H        94      M_A    0.0000
    664 H         133.8277  105.6229   59.0660 H        94      M_A    0.0000
    665 H         132.3335  106.5331   58.8957 H        94      M_A    0.0000
    666 C         132.2293  103.2886   58.7901 C.3      95      M_A    0.0000
    667 C         132.9614  102.3340   59.7286 C.3      95      M_A    0.0000
    668 O         132.3276  101.0548   59.7355 O.3      95      M_A    0.0000
    669 H         131.2543  102.8848   58.4972 H        95      M_A    0.0000
    670 H         132.8237  103.4143   57.8778 H        95      M_A    0.0000
    671 H         134.0193  102.2545   59.4396 H        95      M_A    0.0000
    672 H         132.9510  102.7113   60.7588 H        95      M_A    0.0000
    673 C         133.2362  100.0293   60.0816 C.3      96      M_A    0.0000
    674 C         134.0656  100.3880   61.3110 C.3      96      M_A    0.0000
    675 O         134.3891   99.2142   62.0563 O.3      96      M_A    0.0000
    676 H         132.6814   99.0979   60.2370 H        96      M_A    0.0000
    677 H         133.9106   99.8756   59.2314 H        96      M_A    0.0000
    678 H         134.9718  100.9338   61.0114 H        96      M_A    0.0000
    679 H         133.5090  101.0578   61.9784 H        96      M_A    0.0000
    680 C         135.2822   98.3805   61.3463 C.3      97      M_A    0.0000
    681 C         135.9904   97.3862   62.2618 C.3      97      M_A    0.0000
    682 O         135.4393   96.0790   62.1026 O.3      97      M_A    0.0000
    683 H         134.7336   97.8643   60.5512 H        97      M_A    0.0000
    684 H         136.0334   99.0203   60.8692 H        97      M_A    0.0000
    685 H         137.0718   97.3912   62.0632 H        97      M_A    0.0000
    686 H         135.8693   97.6676   63.3153 H        97      M_A    0.0000
    687 C         136.3564   95.0794   62.4983 C.3      98      M_A    0.0000
    688 C         136.3322   94.8422   64.0053 C.3      98      M_A    0.0000
    689 O         136.4443   93.4487   64.2945 O.3      98      M_A    0.0000
    690 H         136.1385   94.1570   61.9494 H        98      M_A    0.0000
    691 H         137.3604   95.4089   62.2073 H        98      M_A    0.0000
    692 H         137.1324   95.4174   64.4930 H        98      M_A    0.0000
    693 H         135.3895   95.1937   64.4430 H        98      M_A    0.0000
    694 C         137.7372   92.9614   63.9983 C.3      99      M_A    0.0000
    695 C         138.3752   92.2620   65.1950 C.3      99      M_A    0.0000
    696 O         138.2708   90.8447   65.0604 O.3      99      M_A    0.0000
    697 H         137.6772   92.2909   63.1344 H        99      M_A    0.0000
    698 H         138.3619   93.8154   63.7124 H        99      M_A    0.0000
    699 H         139.4229   92.5771   65.3045 H        99      M_A    0.0000
    700 H         137.8703   92.5415   66.1281 H        99      M_A    0.0000
    701 C         138.9830   90.1744   66.0803 C.3     100      M_A    0.0000
    702 C         138.2447   88.9348   66.5768 C.3     100      M_A    0.0000
    703 O         139.1617   88.0006   67.1462 O.3     100      M_A    0.0000
    704 H         139.9813   89.9179   65.7098 H       100      M_A    0.0000
    705 H         139.1089   90.8709   66.9171 H       100      M_A    0.0000
    706 H         137.4655   89.2206   67.2980 H       100      M_A    0.0000
    707 H         137.7295   88.4278   65.7514 H       100      M_A    0.0000
    708 C         139.6839   88.4703   68.3724 C.3     101      M_A    0.0000
    709 C         138.6029   88.6133   69.4397 C.3     101      M_A    0.0000
    710 O         138.3630   87.3602   70.0801 O.3     101      M_A    0.0000
    711 H         140.4799   87.7950   68.7040 H       101      M_A    0.0000
    712 H         140.1362   89.4522   68.1920 H       101      M_A    0.0000
    713 H         138.8882   89.3863   70.1677 H       101      M_A    0.0000
    714 H         137.6548   88.9425   68.9964 H       101      M_A    0.0000
    715 C         137.8015   86.4213   69.1857 C.3     102      M_A    0.0000
    716 C         137.1752   85.2366   69.9153 C.3     102      M_A    0.0000
    717 O         135.7662   85.4209   70.0518 O.3     102      M_A    0.0000
    718 H         137.0668   86.9278   68.5507 H       102      M_A    0.0000
    719 H         138.6037   86.0536   68.5357 H       102      M_A    0.0000
    720 H         137.4068   84.3003   69.3874 H       102      M_A    0.0000
    721 H         137.5922   85.1323   70.9248 H       102      M_A    0.0000
    722 C         135.0814   84.1849   70.0605 C.3     103      M_A    0.0000
    723 C         134.6416   83.7822   71.4650 C.3     103      M_A    0.0000
    724 O         133.3211   84.2549   71.7308 O.3     103      M_A    0.0000
    725 H         134.2251   84.2459   69.3805 H       103      M_A    0.0000
    726 H         135.7617   83.4199   69.6690 H       103      M_A    0.0000
    727 H         134.7075   82.6912   71.5851 H       103      M_A    0.0000
    728 H         135.3048   84.2162   72.2237 H       103      M_A    0.0000
    729 C         132.9628   84.0556   73.0831 C.3     104      M_A    0.0000
    730 C         131.9787   85.1115   73.5780 C.3     104      M_A    0.0000
    731 O         130.8020   84.4938   74.0991 O.3     104      M_A    0.0000
    732 H         132.5518   83.0470   73.1990 H       104      M_A    0.0000
    733 H         133.8765   84.1124   73.6857 H       104      M_A    0.0000
    734 H         132.4587   85.7551   74.3292 H       104      M_A    0.0000
    735 H         131.6677   85.7726   72.7594 H       104      M_A    0.0000
    736 C         130.5870   83.2217   73.5226 C.3     105      M_A    0.0000
    737 C         129.6119   82.3787   74.3391 C.3     105      M_A    0.0000
    738 O         128.5418   81.9139   73.5165 O.3     105      M_A    0.0000
    739 H         130.2330   83.3506   72.4942 H       105      M_A    0.0000
    740 H         131.5522   82.7042   73.4785 H       105      M_A    0.0000
    741 H         130.1415   81.5419   74.8169 H       105      M_A    0.0000
    742 H         129.1693   82.9676   75.1522 H       105      M_A    0.0000
    743 C         128.1082   80.6277   73.9098 C.3     106      M_A    0.0000
    744 C         126.8770   80.6870   74.8091 C.3     106      M_A    0.0000
    745 O         126.1064   79.4920   74.6820 O.3     106      M_A    0.0000
    746 H         127.9154   80.0265   73.0149 H       106      M_A    0.0000
    747 H         128.9267   80.1498   74.4602 H       106      M_A    0.0000
    748 H         127.1773   80.8600   75.8526 H       106      M_A    0.0000
    749 H         126.2283   81.5272   74.5318 H       106      M_A    0.0000
    750 C         126.8927   78.3419   74.9183 C.3     107      M_A    0.0000
    751 C         126.0901   77.2226   75.5749 C.3     107      M_A    0.0000
    752 O         125.7850   76.2018   74.6248 O.3     107      M_A    0.0000
    753 H         127.3335   78.0098   73.9723 H       107      M_A    0.0000
    754 H         127.7147   78.6268   75.5850 H       107      M_A    0.0000
    755 H         126.6399   76.8161   76.4360 H       107      M_A    0.0000
    756 H         125.1381   77.6007   75.9679 H       107      M_A    0.0000
    757 C         125.4942   74.9737   75.2605 C.3     108      M_A    0.0000
    758 C         124.4562   75.1320   76.3676 C.3     108      M_A    0.0000
    759 O         123.1473   74.8549   75.8699 O.3     108      M_A    0.0000
    760 H         125.1618   74.2514   74.5074 H       108      M_A    0.0000
    761 H         126.4239   74.5923   75.6981 H       108      M_A    0.0000
    762 H         124.7065   74.4819   77.2183 H       108      M_A    0.0000
    763 H         124.4496   76.1582   76.7557 H       108      M_A    0.0000
    764 C         122.1505   75.4446   76.6794 C.3     109      M_A    0.0000
    765 C         120.7511   75.2423   76.1059 C.3     109      M_A    0.0000
    766 O         120.0529   74.2323   76.8341 O.3     109      M_A    0.0000
    767 H         122.2252   75.0360   77.6928 H       109      M_A    0.0000
    768 H         122.3572   76.5193   76.7393 H       109      M_A    0.0000
    769 H         120.1982   76.1927   76.1101 H       109      M_A    0.0000
    770 H         120.7990   74.9184   75.0587 H       109      M_A    0.0000
    771 C         118.9831   73.6980   76.0812 C.3     110      M_A    0.0000
    772 C         118.9581   72.1730   76.1214 C.3     110      M_A    0.0000
    773 O         117.6544   71.7026   76.4636 O.3     110      M_A    0.0000
    774 H         118.0415   74.1187   76.4500 H       110      M_A    0.0000
    775 H         119.1069   74.0234   75.0419 H       110      M_A    0.0000
    776 H         119.2910   71.7624   75.1572 H       110      M_A    0.0000
    777 H         119.6548   71.7887   76.8769 H       110      M_A    0.0000
    778 C         117.6501   70.3072   76.6867 C.3     111      M_A    0.0000
    779 C         116.3523   69.8334   77.3344 C.3     111      M_A    0.0000
    780 O         115.5005   69.2267   76.3627 O.3     111      M_A    0.0000
    781 H         117.8285   69.7928   75.7364 H       111      M_A    0.0000
    782 H         118.4866   70.0701   77.3541 H       111      M_A    0.0000
    783 H         116.5711   69.1426   78.1614 H       111      M_A    0.0000
    784 H         115.8025   70.6752   77.7734 H       111      M_A    0.0000
    785 C         114.2229   68.9466   76.8977 C.3     112      M_A    0.0000
    786 C         113.4216   70.2171   77.1657 C.3     112      M_A    0.0000
    787 O         112.2179   70.2208   76.3983 O.3     112      M_A    0.0000
    788 H         113.6880   68.2786   76.2143 H       112      M_A    0.0000
    789 H         114.3637   68.4102   77.8431 H       112      M_A    0.0000
    790 H         113.2108   70.3133   78.2405 H       112      M_A    0.0000
    791 H         113.9941   71.1094   76.8830 H       112      M_A    0.0000
    792 C         111.5628   68.9701   76.4576 C.3     113      M_A    0.0000
    793 C         110.2272   68.9859   75.7199 C.3     113      M_A    0.0000
    794 O         109.8951   67.6767   75.2580 O.3     113      M_A    0.0000
    795 H         112.2279   68.1989   76.0545 H       113      M_A    0.0000
    796 H         111.3824   68.7339   77.5125 H       113      M_A    0.0000
    797 H         109.4393   69.3924   76.3703 H       113      M_A    0.0000
    798 H         110.2713   69.6426   74.8421 H       113      M_A    0.0000
    799 C         109.3177   66.8968   76.2852 C.3     114      M_A    0.0000
    800 C         107.8238   66.6755   76.0673 C.3     114      M_A    0.0000
    801 O         107.5752   65.3427   75.6205 O.3     114      M_A    0.0000
    802 H         109.8526   65.9436   76.3538 H       114      M_A    0.0000
    803 H         109.4629   67.4273   77.2332 H       114      M_A    0.0000
    804 H         107.2686   66.8981   76.9899 H       114      M_A    0.0000
    805 H         107.4337   67.3570   75.3010 H       114      M_A    0.0000
    806 C         106.2263   65.1688   75.2371 C.3     115      M_A    0.0000
    807 C         105.9229   63.7265   74.8423 C.3     115      M_A    0.0000
    808 O         104.5542   63.4141   75.1011 O.3     115      M_A    0.0000
    809 H         105.5769   65.4998   76.0546 H       115      M_A    0.0000
    810 H         106.0339   65.8199   74.3767 H       115      M_A    0.0000
    811 H         106.1781   63.5606   73.7858 H       115      M_A    0.0000
    812 H         106.5353   63.0239   75.4212 H       115      M_A    0.0000
    813 C         103.6879   64.1536   74.2647 C.3     116      M_A    0.0000
    814 C         102.2551   63.6316   74.3172 C.3     116      M_A    0.0000
    815 O         101.3321   64.6686   73.9848 O.3     116      M_A    0.0000
    816 H         103.7341   65.2106   74.5477 H       116      M_A    0.0000
    817 H         104.0585   64.0692   73.2367 H       116      M_A    0.0000
    818 H         102.1418   62.7660   73.6487 H       116      M_A    0.0000
    819 H         102.0028   63.2778   75.3247 H       116      M_A    0.0000
    820 C         100.0048   64.3006   74.3008 C.3     117      M_A    0.0000
    821 C          99.0526   64.5247   73.1298 C.3     117      M_A    0.0000
    822 O          98.0983   63.4660   73.0511 O.3     117      M_A    0.0000
    823 H          99.9918   63.2549   74.6263 H       117      M_A    0.0000
    824 H          99.6771   64.9152   75.1470 H       117      M_A    0.0000
    825 H          98.5584   65.5023   73.2244 H       117      M_A    0.0000
    826 H          99.5986   64.5462   72.1784 H       117      M_A    0.0000
    827 C          96.8947   63.8982   72.4499 C.3     118      M_A    0.0000
    828 C          95.8835   62.7642   72.3095 C.3     118      M_A    0.0000
    829 O          94.5827   63.2022   72.7017 O.3     118      M_A    0.0000
    830 H          96.4808   64.7268   73.0343 H       118      M_A    0.0000
    831 H          97.1357   64.2838   71.4526 H       118      M_A    0.0000
    832 H          95.8828   62.3818   71.2785 H       118      M_A    0.0000
    833 H          96.1525   61.9166   72.9522 H       118      M_A    0.0000
    834 C          93.9376   63.9054   71.6595 C.3     119      M_A    0.0000
    835 C          93.5952   62.9986   70.4811 C.3     119      M_A    0.0000
    836 O          92.3859   62.2836   70.7347 O.3     119      M_A    0.0000
    837 H          93.0407   64.3914   72.0580 H       119      M_A    0.0000
    838 H          94.6163   64.6939   71.3146 H       119      M_A    0.0000
    839 H          93.5243   63.5888   69.5561 H       119      M_A    0.0000
    840 H          94.3863   62.2571   70.3135 H       119      M_A    0.0000
    841 C          92.3410   61.7973   72.0608 C.3     120      M_A    0.0000
    842 C          91.7179   60.4069   72.1416 C.3     120      M_A    0.0000
    843 O          92.7100   59.4317   72.4620 O.3     120      M_A    0.0000
    844 H          93.3539   61.8015   72.4774 H       120      M_A    0.0000
    845 H          91.7357   62.4921   72.6541 H       120      M_A    0.0000
    846 H          90.8989   60.4000   72.8752 H       120      M_A    0.0000
    847 H          91.2732   60.1195   71.1806 H       120      M_A    0.0000
    848 C          92.3417   58.1481   72.0000 C.3     121      M_A    0.0000
    849 C          92.0235   57.1942   73.1476 C.3     121      M_A    0.0000
    850 O          90.7666   56.5528   72.9314 O.3     121      M_A    0.0000
    851 H          91.4900   58.2444   71.3183 H       121      M_A    0.0000
    852 H          93.1823   57.7429   71.4249 H       121      M_A    0.0000
    853 H          92.8326   56.4591   73.2656 H       121      M_A    0.0000
    854 H          91.9569   57.7346   74.1002 H       121      M_A    0.0000
    855 C          90.1787   56.9642   71.7140 C.3     122      M_A    0.0000
    856 C          89.1060   55.9898   71.2364 C.3     122      M_A    0.0000
    857 O          87.8115   56.4303   71.6463 O.3     122      M_A    0.0000
    858 H          89.7699   57.9727   71.8375 H       122      M_A    0.0000
    859 H          90.9708   57.0178   70.9584 H       122      M_A    0.0000
    860 H          89.1607   55.8705   70.1447 H       122      M_A    0.0000
    861 H          89.2640   54.9917   71.6636 H       122      M_A    0.0000
    862 C          86.8771   55.3702   71.6357 C.3     123      M_A    0.0000
    863 C          85.5876   55.7342   72.3656 C.3     123      M_A    0.0000
    864 O          84.4772   55.6957   71.4693 O.3     123      M_A    0.0000
    865 H          86.6762   55.0813   70.5985 H       123      M_A    0.0000
    866 H          87.3372   54.5104   72.1360 H       123      M_A    0.0000
    867 H          85.4336   55.0621   73.2220 H       123      M_A    0.0000
    868 H          85.6426   56.7498   72.7770 H       123      M_A    0.0000
    869 C          83.3061   56.2047   72.0745 C.3     124      M_A    0.0000
    870 C          82.0620   55.9373   71.2326 C.3     124      M_A    0.0000
    871 O          81.4882   54.6756   71.5742 O.3     124      M_A    0.0000
    872 H          83.2054   55.7741   73.0764 H       124      M_A    0.0000
    873 H          83.4299   57.2876   72.1901 H       124      M_A    0.0000
    874 H          81.3362   56.7537   71.3579 H       124      M_A    0.0000
    875 H          82.3100   55.9069   70.1642 H       124      M_A    0.0000
    876 C          80.8018   54.1058   70.4782 C.3     125      M_A    0.0000
    877 C          79.8630   52.9830   70.9096 C.3     125      M_A    0.0000
    878 O          78.6586   53.0158   70.1440 O.3     125      M_A    0.0000
    879 H          80.2574   54.8947   69.9483 H       125      M_A    0.0000
    880 H          81.5490   53.6977   69.7880 H       125      M_A    0.0000
    881 H          80.3679   52.0104   70.8192 H       125      M_A    0.0000
    882 H          79.5841   53.0884   71.9655 H       125      M_A    0.0000
    883 C          78.9150   52.8224   68.7679 C.3     126      M_A    0.0000
    884 C          77.8652   51.9336   68.1077 C.3     126      M_A    0.0000
    885 O          76.7917   52.7229   67.5953 O.3     126      M_A    0.0000
    886 H          78.9734   53.7985   68.2746 H       126      M_A    0.0000
    887 H          79.8961   52.3434   68.6720 H       126      M_A    0.0000
    888 H          78.3265   51.3245   67.3170 H       126      M_A    0.0000
    889 H          77.4378   51.2275   68.8305 H       126      M_A    0.0000
    890 C          75.5810   51.9946   67.5689 C.3     127      M_A    0.0000
    891 C          75.0051   51.7872   68.9665 C.3     127      M_A    0.0000
    892 O          73.5998   52.0385   68.9711 O.3     127      M_A    0.0000
    893 H          74.8667   52.5123   66.9198 H       127      M_A    0.0000
    894 H          75.7864   51.0155   67.1212 H       127      M_A    0.0000
    895 H          75.2309   50.7720   69.3232 H       127      M_A    0.0000
    896 H          75.4643   52.4760   69.6865 H       127      M_A    0.0000
    897 C          73.3199   53.4141   68.8087 C.3     128      M_A    0.0000
    898 C          72.4094   53.6774   67.6129 C.3     128      M_A    0.0000
    899 O          71.0450   53.4436   67.9617 O.3     128      M_A    0.0000
    900 H          72.8792   53.8007   69.7338 H       128      M_A    0.0000
    901 H          74.2711   53.9353   68.6517 H       128      M_A    0.0000
    902 H          72.5574   54.7018   67.2416 H       128      M_A    0.0000
    903 H          72.6544   53.0088   66.7782 H       128      M_A    0.0000
    904 C          70.3054   52.9584   66.8597 C.3     129      M_A    0.0000
    905 C          68.9228   52.4607   67.2706 C.3     129      M_A    0.0000
    906 O          67.9696   52.7243   66.2411 O.3     129      M_A    0.0000
    907 H          70.2329   53.7468   66.1029 H       129      M_A    0.0000
    908 H          70.8652   52.1259   66.4184 H       129      M_A    0.0000
    909 H          68.9621   51.3892   67.5142 H       129      M_A    0.0000
    910 H          68.5757   52.9704   68.1780 H       129      M_A    0.0000
    911 C          68.5708   52.7055   64.9624 C.3     130      M_A    0.0000
    912 C          67.5376   52.7655   63.8413 C.3     130      M_A    0.0000
    913 O          67.9508   53.6827   62.8284 O.3     130      M_A    0.0000
    914 H          69.2818   53.5354   64.8896 H       130      M_A    0.0000
    915 H          69.1394   51.7729   64.8710 H       130      M_A    0.0000
    916 H          67.3688   51.7613   63.4266 H       130      M_A    0.0000
    917 H          66.5670   53.1096   64.2199 H       130      M_A    0.0000
    918 C          66.8421   54.2914   62.1982 C.3     131      M_A    0.0000
    919 C          66.6395   53.7812   60.7746 C.3     131      M_A    0.0000
    920 O          65.2638   53.8670   60.4032 O.3     131      M_A    0.0000
    921 H          65.9482   54.1248   62.8088 H       131      M_A    0.0000
    922 H          67.0243   55.3716   62.1652 H       131      M_A    0.0000
    923 H          67.2779   54.3414   60.0763 H       131      M_A    0.0000
    924 H          66.9380   52.7290   60.6884 H       131      M_A    0.0000
    925 C          64.9776   55.0913   59.7580 C.3     132      M_A    0.0000
    926 C          63.6193   55.6526   60.1681 C.3     132      M_A    0.0000
    927 O          63.6021   57.0732   60.0289 O.3     132      M_A    0.0000
    928 H          65.7809   55.8043   59.9720 H       132      M_A    0.0000
    929 H          64.9746   54.9100   58.6771 H       132      M_A    0.0000
    930 H          62.8203   55.1831   59.5764 H       132      M_A    0.0000
    931 H          63.4005   55.4228   61.2184 H       132      M_A    0.0000
    932 C          63.3570   57.4589   58.6917 C.3     133      M_A    0.0000
    933 C          64.1166   58.7264   58.3113 C.3     133      M_A    0.0000
    934 O          64.8838   58.5135   57.1265 O.3     133      M_A    0.0000
    935 H          63.6163   56.6281   58.0269 H       133      M_A    0.0000
    936 H          62.2820   57.6446   58.5863 H       133      M_A    0.0000
    937 H          63.4170   59.5658   58.1893 H       133      M_A    0.0000
    938 H          64.8139   59.0196   59.1060 H       133      M_A    0.0000
    939 C          66.0770   59.2705   57.1400 C.3     134      M_A    0.0000
    940 C          66.0226   60.4454   56.1681 C.3     134      M_A    0.0000
    941 O          65.6682   61.6462   56.8539 O.3     134      M_A    0.0000
    942 H          66.2721   59.6117   58.1622 H       134      M_A    0.0000
    943 H          66.9000   58.6075   56.8492 H       134      M_A    0.0000
    944 H          66.9849   60.5517   55.6469 H       134      M_A    0.0000
    945 H          65.2678   60.2765   55.3899 H       134      M_A    0.0000
    946 C          65.2291   62.6446   55.9554 C.3     135      M_A    0.0000
    947 C          63.8492   62.3351   55.3827 C.3     135      M_A    0.0000
    948 O          63.1940   63.5371   54.9781 O.3     135      M_A    0.0000
    949 H          65.2370   63.6134   56.4661 H       135      M_A    0.0000
    950 H          65.9508   62.6981   55.1322 H       135      M_A    0.0000
    951 H          63.9355   61.6259   54.5469 H       135      M_A    0.0000
    952 H          63.2123   61.8505   56.1334 H       135      M_A    0.0000
    953 C          63.9963   64.2901   54.0913 C.3     136      M_A    0.0000
    954 C          63.4438   64.2811   52.6690 C.3     136      M_A    0.0000
    955 O          62.5290   65.3607   52.4807 O.3     136      M_A    0.0000
    956 H          64.0884   65.3124   54.4732 H       136      M_A    0.0000
    957 H          64.9988   63.8470   54.0850 H       136      M_A    0.0000
    958 H          64.2673   64.3234   51.9417 H       136      M_A    0.0000
    959 H          62.9000   63.3503   52.4650 H       136      M_A    0.0000
    960 C          62.2844   65.5982   51.1094 C.3     137      M_A    0.0000
    961 C          60.8015   65.4970   50.7647 C.3     137      M_A    0.0000
    962 O          60.2818   66.7782   50.4091 O.3     137      M_A    0.0000
    963 H          62.6869   66.5803   50.8394 H       137      M_A    0.0000
    964 H          62.8344   64.8450   50.5336 H       137      M_A    0.0000
    965 H          60.6483   64.7655   49.9583 H       137      M_A    0.0000
    966 H          60.2227   65.1346   51.6234 H       137      M_A    0.0000
    967 C          58.8853   66.8451   50.6147 C.3     138      M_A    0.0000
    968 C          58.1975   67.7485   49.5954 C.3     138      M_A    0.0000
    969 O          57.1594   67.0399   48.9187 O.3     138      M_A    0.0000
    970 H          58.4711   65.8316   50.5876 H       138      M_A    0.0000
    971 H          58.7115   67.2474   51.6193 H       138      M_A    0.0000
    972 H          57.8095   68.6511   50.0891 H       138      M_A    0.0000
    973 H          58.9085   68.0948   48.8349 H       138      M_A    0.0000
    974 C          56.7978   67.6800   47.7119 C.3     139      M_A    0.0000
    975 C          55.3740   68.2268   47.7562 C.3     139      M_A    0.0000
    976 O          55.3674   69.6282   47.4844 O.3     139      M_A    0.0000
    977 H          57.5202   68.4752   47.4989 H       139      M_A    0.0000
    978 H          56.8693   66.9423   46.9045 H       139      M_A    0.0000
    979 H          54.7350   67.6792   47.0486 H       139      M_A    0.0000
    980 H          54.9288   68.0825   48.7485 H       139      M_A    0.0000
    981 C          54.2100   70.2504   48.0042 C.3     140      M_A    0.0000
    982 C          54.1185   71.7196   47.6026 C.3     140      M_A    0.0000
    983 O          52.9951   71.9360   46.7488 O.3     140      M_A    0.0000
    984 H          53.3262   69.6944   47.6734 H       140      M_A    0.0000
    985 H          54.2536   70.1837   49.0973 H       140      M_A    0.0000
    986 H          54.0684   72.3554   48.4983 H       140      M_A    0.0000
    987 H          55.0145   72.0327   47.0523 H       140      M_A    0.0000
    988 C          52.9941   73.2454   46.2173 C.3     141      M_A    0.0000
    989 C          51.9013   73.4391   45.1702 C.3     141      M_A    0.0000
    990 O          50.8577   74.2671   45.6832 O.3     141      M_A    0.0000
    991 H          52.8878   73.9638   47.0372 H       141      M_A    0.0000
    992 H          53.9693   73.4195   45.7484 H       141      M_A    0.0000
    993 H          52.3290   73.8597   44.2487 H       141      M_A    0.0000
    994 H          51.4510   72.4786   44.8904 H       141      M_A    0.0000
    995 C          49.5972   73.8890   45.1684 C.3     142      M_A    0.0000
    996 C          48.8603   75.0645   44.5333 C.3     142      M_A    0.0000
    997 O          48.9094   74.9756   43.1094 O.3     142      M_A    0.0000
    998 H          49.7345   73.0738   44.4500 H       142      M_A    0.0000
    999 H          48.9966   73.5011   45.9991 H       142      M_A    0.0000
   1000 H          47.8231   75.1029   44.8960 H       142      M_A    0.0000
   1001 H          49.3221   76.0179   44.8190 H       142      M_A    0.0000
   1002 C          48.3959   76.1427   42.5003 C.3     143      M_A    0.0000
   1003 C          49.5032   77.0977   42.0644 C.3     143      M_A    0.0000
   1004 O          49.3738   77.4148   40.6786 O.3     143      M_A    0.0000
   1005 H          47.7652   75.8553   41.6522 H       143      M_A    0.0000
   1006 H          47.7567   76.6510   43.2313 H       143      M_A    0.0000
   1007 H          49.4881   78.0049   42.6854 H       143      M_A    0.0000
   1008 H          50.4918   76.6435   42.2066 H       143      M_A    0.0000
   1009 C          50.5261   78.0695   40.1881 C.3     144      M_A    0.0000
   1010 C          50.2229   78.9214   38.9590 C.3     144      M_A    0.0000
   1011 O          50.0683   80.2922   39.3260 O.3     144      M_A    0.0000
   1012 H          50.9623   78.6742   40.9903 H       144      M_A    0.0000
   1013 H          51.2594   77.3019   39.9154 H       144      M_A    0.0000
   1014 H          51.0140   78.7958   38.2058 H       144      M_A    0.0000
   1015 H          49.2886   78.6020   38.4807 H       144      M_A    0.0000
   1016 C          48.8375   80.8144   38.8686 C.3     145      M_A    0.0000
   1017 C          49.0094   81.6880   37.6294 C.3     145      M_A    0.0000
   1018 O          48.0813   81.3051   36.6146 O.3     145      M_A    0.0000
   1019 H          48.1475   79.9861   38.6757 H       145      M_A    0.0000
   1020 H          48.4091   81.4220   39.6740 H       145      M_A    0.0000
   1021 H          48.8968   82.7491   37.8945 H       145      M_A    0.0000
   1022 H          50.0176   81.5805   37.2101 H       145      M_A    0.0000
   1023 C          46.8546   80.8772   37.1703 C.3     146      M_A    0.0000
   1024 C          45.6561   81.3740   36.3670 C.3     146      M_A    0.0000
   1025 O          45.0535   80.2971   35.6494 O.3     146      M_A    0.0000
   1026 H          46.8566   79.7844   37.2422 H       146      M_A    0.0000
   1027 H          46.7886   81.2763   38.1889 H       146      M_A    0.0000
   1028 H          44.9317   81.8665   37.0316 H       146      M_A    0.0000
   1029 H          45.9620   82.1284   35.6315 H       146      M_A    0.0000
   1030 C          45.8766   79.8583   34.5878 C.3     147      M_A    0.0000
   1031 C          45.1847   79.9871   33.2340 C.3     147      M_A    0.0000
   1032 O          45.6842   81.1193   32.5223 O.3     147      M_A    0.0000
   1033 H          46.8155   80.4219   34.6071 H       147      M_A    0.0000
   1034 H          46.1193   78.8040   34.7631 H       147      M_A    0.0000
   1035 H          45.3117   79.0620   32.6534 H       147      M_A    0.0000
   1036 H          44.1036   80.1274   33.3574 H       147      M_A    0.0000
   1037 C          45.4006   82.3246   33.2033 C.3     148      M_A    0.0000
   1038 C          46.6586   83.1495   33.4585 C.3     148      M_A    0.0000
   1039 O          46.5855   84.3990   32.7720 O.3     148      M_A    0.0000
   1040 H          44.6636   82.8951   32.6281 H       148      M_A    0.0000
   1041 H          44.9434   82.0682   34.1658 H       148      M_A    0.0000
   1042 H          46.8046   83.2946   34.5385 H       148      M_A    0.0000
   1043 H          47.5516   82.6264   33.0944 H       148      M_A    0.0000
   1044 C          45.6804   85.2829   33.4016 C.3     149      M_A    0.0000
   1045 C          45.4704   86.5606   32.5945 C.3     149      M_A    0.0000
   1046 O          44.0898   86.7278   32.2722 O.3     149      M_A    0.0000
   1047 H          44.7320   84.7622   33.5713 H       149      M_A    0.0000
   1048 H          46.0937   85.5467   34.3818 H       149      M_A    0.0000
   1049 H          45.8596   87.4274   33.1479 H       149      M_A    0.0000
   1050 H          46.0262   86.5237   31.6492 H       149      M_A    0.0000
   1051 C          43.8947   87.8006   31.3734 C.3     150      M_A    0.0000
   1052 C          44.4338   87.4880   29.9806 C.3     150      M_A    0.0000
   1053 O          44.3652   88.6443   29.1463 O.3     150      M_A    0.0000
   1054 H          42.8283   88.0479   31.3382 H       150      M_A    0.0000
   1055 H          44.4245   88.6739   31.7709 H       150      M_A    0.0000
   1056 H          45.4620   87.1046   30.0489 H       150      M_A    0.0000
   1057 H          43.8424   86.6995   29.4986 H       150      M_A    0.0000
   1058 C          45.6415   89.2194   28.9536 C.3     151      M_A    0.0000
   1059 C          45.8503   90.4573   29.8208 C.3     151      M_A    0.0000
   1060 O          47.2431   90.7085   30.0076 O.3     151      M_A    0.0000
   1061 H          46.4081   88.4631   29.1531 H       151      M_A    0.0000
   1062 H          45.7259   89.5068   27.8993 H       151      M_A    0.0000
   1063 H          45.3442   91.3245   29.3726 H       151      M_A    0.0000
   1064 H          45.4051   90.3203   30.8142 H       151      M_A    0.0000
   1065 C          47.5025   91.2623   31.2815 C.3     152      M_A    0.0000
   1066 C          48.2587   92.5844   31.1896 C.3     152      M_A    0.0000
   1067 O          47.3514   93.6664   30.9800 O.3     152      M_A    0.0000
   1068 H          46.5553   91.3851   31.8174 H       152      M_A    0.0000
   1069 H          48.1107   90.5444   31.8436 H       152      M_A    0.0000
   1070 H          48.8636   92.7393   32.0946 H       152      M_A    0.0000
   1071 H          48.9614   92.5770   30.3470 H       152      M_A    0.0000
   1072 C          46.4727   93.4037   29.9050 C.3     153      M_A    0.0000
   1073 C          45.5784   94.5990   29.5891 C.3     153      M_A    0.0000
   1074 O          46.1640   95.4060   28.5676 O.3     153      M_A    0.0000
   1075 H          47.0587   93.1060   29.0289 H       153      M_A    0.0000
   1076 H          45.8413   92.5530   30.1860 H       153      M_A    0.0000
   1077 H          44.5742   94.2560   29.3013 H       153      M_A    0.0000
   1078 H          45.4452   95.2342   30.4737 H       153      M_A    0.0000
   1079 C          45.7905   96.7622   28.7021 C.3     154      M_A    0.0000
   1080 C          46.7133   97.6922   27.9199 C.3     154      M_A    0.0000
   1081 O          46.0059   98.8565   27.4935 O.3     154      M_A    0.0000
   1082 H          44.7491   96.8793   28.3839 H       154      M_A    0.0000
   1083 H          45.8434   97.0224   29.7655 H       154      M_A    0.0000
   1084 H          47.5896   97.9573   28.5287 H       154      M_A    0.0000
   1085 H          47.1010   97.1960   27.0215 H       154      M_A    0.0000
   1086 C          46.8914   99.9026   27.1494 C.3     155      M_A    0.0000
   1087 C          46.2023  101.2640   27.1569 C.3     155      M_A    0.0000
   1088 O          46.9720  102.2104   27.8983 O.3     155      M_A    0.0000
   1089 H          47.7453   99.8881   27.8351 H       155      M_A    0.0000
   1090 H          47.2724   99.7037   26.1412 H       155      M_A    0.0000
   1091 H          46.0301  101.6078   26.1268 H       155      M_A    0.0000
   1092 H          45.2144  101.2013   27.6300 H       155      M_A    0.0000
   1093 C          46.7227  103.5323   27.4654 C.3     156      M_A    0.0000
   1094 C          45.6454  104.2167   28.3016 C.3     156      M_A    0.0000
   1095 O          45.9645  105.5941   28.4986 O.3     156      M_A    0.0000
   1096 H          47.6599  104.0985   27.4881 H       156      M_A    0.0000
   1097 H          46.3874  103.4879   26.4229 H       156      M_A    0.0000
   1098 H          44.6621  104.0984   27.8242 H       156      M_A    0.0000
   1099 H          45.5644  103.7533   29.2928 H       156      M_A    0.0000
   1100 C          45.5932  106.3759   27.3815 C.3     157      M_A    0.0000
   1101 C          45.2719  107.8161   27.7699 C.3     157      M_A    0.0000
   1102 O          46.3937  108.6634   27.5219 O.3     157      M_A    0.0000
   1103 H          46.3943  106.3369   26.6358 H       157      M_A    0.0000
   1104 H          44.7015  105.9221   26.9340 H       157      M_A    0.0000
   1105 H          44.3801  108.1650   27.2297 H       157      M_A    0.0000
   1106 H          45.0338  107.8908   28.8383 H       157      M_A    0.0000
   1107 C          46.1867  109.9610   28.0417 C.3     158      M_A    0.0000
   1108 C          47.3145  110.9171   27.6648 C.3     158      M_A    0.0000
   1109 O          46.7922  112.0757   27.0146 O.3     158      M_A    0.0000
   1110 H          45.2182  110.3353   27.6932 H       158      M_A    0.0000
   1111 H          46.1383  109.8828   29.1338 H       158      M_A    0.0000
   1112 H          47.8967  111.1879   28.5574 H       158      M_A    0.0000
   1113 H          48.0182  110.4402   26.9711 H       158      M_A    0.0000
   1114 C          47.5326  113.2328   27.3460 C.3     159      M_A    0.0000
   1115 C          48.4003  113.7111   26.1856 C.3     159      M_A    0.0000
   1116 O          48.0494  115.0442   25.8146 O.3     159      M_A    0.0000
   1117 H          46.8421  114.0175   27.6729 H       159      M_A    0.0000
   1118 H          48.1805  112.9866   28.1951 H       159      M_A    0.0000
   1119 H          49.4645  113.6371   26.4518 H       159      M_A    0.0000
   1120 H          48.2589  113.0762   25.3020 H       159      M_A    0.0000
   1121 C          49.1587  115.7435   25.2881 C.3     160      M_A    0.0000
   1122 C          48.7342  116.9434   24.4466 C.3     160      M_A    0.0000
   1123 O          48.6635  118.1198   25.2521 O.3     160      M_A    0.0000
   1124 H          49.8119  116.0499   26.1122 H       160      M_A    0.0000
   1125 H          49.7254  115.0500   24.6563 H       160      M_A    0.0000
   1126 H          49.4253  117.0781   23.6020 H       160      M_A    0.0000
   1127 H          47.7406  116.7844   24.0093 H       160      M_A    0.0000
   1128 C          49.0154  119.2731   24.5153 C.3     161      M_A    0.0000
   1129 C          47.8607  120.2655   24.4159 C.3     161      M_A    0.0000
   1130 O          48.1910  121.4858   25.0790 O.3     161      M_A    0.0000
   1131 H          49.8957  119.7356   24.9744 H       161      M_A    0.0000
   1132 H          49.2972  118.9547   23.5051 H       161      M_A    0.0000
   1133 H          47.6005  120.4407   23.3621 H       161      M_A    0.0000
   1134 H          46.9575  119.8660   24.8939 H       161      M_A    0.0000
   1135 C          49.1227  122.2434   24.3340 C.3     162      M_A    0.0000
   1136 C          48.7578  123.7244   24.2949 C.3     162      M_A    0.0000
   1137 O          49.9095  124.5303   24.5438 O.3     162      M_A    0.0000
   1138 H          50.1228  122.0936   24.7546 H       162      M_A    0.0000
   1139 H          49.1320  121.8534   23.3098 H       162      M_A    0.0000
   1140 H          48.2949  123.9759   23.3298 H       162      M_A    0.0000
   1141 H          48.0149  123.9662   25.0652 H       162      M_A    0.0000
   1142 C          50.6895  124.6923   23.3767 C.3     163      M_A    0.0000
   1143 C          51.1879  126.1252   23.2135 C.3     163      M_A    0.0000
   1144 O          52.3667  126.1566   22.4090 O.3     163      M_A    0.0000
   1145 H          51.5245  123.9841   23.4038 H       163      M_A    0.0000
   1146 H          50.0638  124.4342   22.5147 H       163      M_A    0.0000
   1147 H          50.3953  126.7563   22.7863 H       163      M_A    0.0000
   1148 H          51.4419  126.5657   24.1857 H       163      M_A    0.0000
   1149 C          53.0577  127.3810   22.5514 C.3     164      M_A    0.0000
   1150 C          53.7215  127.8203   21.2497 C.3     164      M_A    0.0000
   1151 O          53.6525  129.2390   21.1067 O.3     164      M_A    0.0000
   1152 H          52.3619  128.1435   22.9173 H       164      M_A    0.0000
   1153 H          53.8315  127.2443   23.3155 H       164      M_A    0.0000
   1154 H          54.7615  127.4652   21.2154 H       164      M_A    0.0000
   1155 H          53.2160  127.3777   20.3823 H       164      M_A    0.0000
   1156 C          53.5223  129.6165   19.7512 C.3     165      M_A    0.0000
   1157 C          54.4056  130.8101   19.4002 C.3     165      M_A    0.0000
   1158 O          55.4092  130.4304   18.4587 O.3     165      M_A    0.0000
   1159 H          53.7526  128.7542   19.1164 H       165      M_A    0.0000
   1160 H          52.4748  129.8869   19.5757 H       165      M_A    0.0000
   1161 H          53.7910  131.6376   19.0176 H       165      M_A    0.0000
   1162 H          54.9190  131.1939   20.2907 H       165      M_A    0.0000
   1163 C          56.1532  131.5477   18.0169 C.3     166      M_A    0.0000
   1164 C          56.5656  131.4205   16.5534 C.3     166      M_A    0.0000
   1165 O          56.6160  132.7057   15.9341 O.3     166      M_A    0.0000
   1166 H          55.5661  132.4569   18.1846 H       166      M_A    0.0000
   1167 H          57.0557  131.6173   18.6348 H       166      M_A    0.0000
   1168 H          57.5314  130.9007   16.4751 H       166      M_A    0.0000
   1169 H          55.8430  130.8140   15.9932 H       166      M_A    0.0000
   1170 C          55.3225  133.2482   15.7626 C.3     167      M_A    0.0000
   1171 C          55.0277  134.3582   16.7672 C.3     167      M_A    0.0000
   1172 O          55.6898  135.5649   16.3884 O.3     167      M_A    0.0000
   1173 H          55.2198  133.6089   14.7336 H       167      M_A    0.0000
   1174 H          54.5964  132.4396   15.9045 H       167      M_A    0.0000
   1175 H          53.9424  134.5092   16.8583 H       167      M_A    0.0000
   1176 H          55.3861  134.0872   17.7681 H       167      M_A    0.0000
   1177 C          56.9883  135.6378   16.9409 C.3     168      M_A    0.0000
   1178 C          57.6783  136.9586   16.6134 C.3     168      M_A    0.0000
   1179 O          58.4146  137.4318   17.7412 O.3     168      M_A    0.0000
   1180 H          56.9254  135.4823   18.0232 H       168      M_A    0.0000
   1181 H          57.5795  134.8155   16.5218 H       168      M_A    0.0000
   1182 H          58.3270  136.8400   15.7335 H       168      M_A    0.0000
   1183 H          56.9440  137.7311   16.3529 H       168      M_A    0.0000
   1184 C          59.3950  136.4986   18.1473 C.3     169      M_A    0.0000
   1185 C          60.7985  136.9180   17.7204 C.3     169      M_A    0.0000
   1186 O          61.2936  137.9502   18.5732 O.3     169      M_A    0.0000
   1187 H          59.3348  136.3668   19.2329 H       169      M_A    0.0000
   1188 H          59.1561  135.5351   17.6827 H       169      M_A    0.0000
   1189 H          61.4698  136.0471   17.7154 H       169      M_A    0.0000
   1190 H          60.7963  137.3111   16.6961 H       169      M_A    0.0000
   1191 C          61.2792  139.2066   17.9267 C.3     170      M_A    0.0000
   1192 C          59.8611  139.6757   17.6150 C.3     170      M_A    0.0000
   1193 O          59.7629  141.0938   17.7461 O.3     170      M_A    0.0000
   1194 H          61.8086  139.9353   18.5498 H       170      M_A    0.0000
   1195 H          61.8347  139.1085   16.9870 H       170      M_A    0.0000
   1196 H          59.5647  139.3457   16.6090 H       170      M_A    0.0000
   1197 H          59.1387  139.2307   18.3106 H       170      M_A    0.0000
   1198 C          59.6092  141.7201   16.4887 C.3     171      M_A    0.0000
   1199 C          59.3946  143.2251   16.6192 C.3     171      M_A    0.0000
   1200 O          60.5680  143.9343   16.2215 O.3     171      M_A    0.0000
   1201 H          60.4848  141.4979   15.8694 H       171      M_A    0.0000
   1202 H          58.7348  141.2786   15.9970 H       171      M_A    0.0000
   1203 H          58.5202  143.5363   16.0297 H       171      M_A    0.0000
   1204 H          59.1798  143.5023   17.6588 H       171      M_A    0.0000
   1205 C          60.6133  145.2236   16.7981 C.3     172      M_A    0.0000
   1206 C          61.9788  145.8822   16.6250 C.3     172      M_A    0.0000
   1207 O          61.8300  147.2580   16.2741 O.3     172      M_A    0.0000
   1208 H          59.8195  145.8387   16.3609 H       172      M_A    0.0000
   1209 H          60.4020  145.1217   17.8687 H       172      M_A    0.0000
   1210 H          62.5753  145.7655   17.5412 H       172      M_A    0.0000
   1211 H          62.5491  145.3983   15.8223 H       172      M_A    0.0000
   1212 C          62.9211  148.0297   16.7332 C.3     173      M_A    0.0000
   1213 C          64.2547  147.3168   16.5296 C.3     173      M_A    0.0000
   1214 O          65.1812  148.1704   15.8583 O.3     173      M_A    0.0000
   1215 H          62.9105  149.0006   16.2264 H       173      M_A    0.0000
   1216 H          62.7771  148.2134   17.8041 H       173      M_A    0.0000
   1217 H          64.6535  146.9748   17.4955 H       173      M_A    0.0000
   1218 H          64.1292  146.4183   15.9126 H       173      M_A    0.0000
   1219 C          66.3564  147.4746   15.4957 C.3     174      M_A    0.0000
   1220 C          67.6156  148.2896   15.7754 C.3     174      M_A    0.0000
   1221 O          68.5918  147.4895   16.4423 O.3     174      M_A    0.0000
   1222 H          66.3810  146.5153   16.0237 H       174      M_A    0.0000
   1223 H          66.3038  147.2607   14.4221 H       174      M_A    0.0000
   1224 H          68.0130  148.7075   14.8392 H       174      M_A    0.0000
   1225 H          67.3931  149.1455   16.4248 H       174      M_A    0.0000
   1226 C          69.9048  147.8721   16.0866 C.3     175      M_A    0.0000
   1227 C          70.8992  147.6328   17.2189 C.3     175      M_A    0.0000
   1228 O          72.1346  147.1369   16.7035 O.3     175      M_A    0.0000
   1229 H          70.2008  147.3335   15.1801 H       175      M_A    0.0000
   1230 H          69.8909  148.9416   15.8471 H       175      M_A    0.0000
   1231 H          71.0485  148.5576   17.7946 H       175      M_A    0.0000
   1232 H          70.5159  146.8876   17.9271 H       175      M_A    0.0000
   1233 C          72.9472  148.1832   16.2120 C.3     176      M_A    0.0000
   1234 C          73.4443  149.0970   17.3283 C.3     176      M_A    0.0000
   1235 O          74.7625  148.7246   17.7302 O.3     176      M_A    0.0000
   1236 H          73.7839  147.7527   15.6515 H       176      M_A    0.0000
   1237 H          72.3476  148.7744   15.5104 H       176      M_A    0.0000
   1238 H          73.4067  150.1470   17.0042 H       176      M_A    0.0000
   1239 H          72.7984  149.0240   18.2122 H       176      M_A    0.0000
   1240 C          75.0847  149.2534   19.0004 C.3     177      M_A    0.0000
   1241 C          76.3080  150.1640   18.9497 C.3     177      M_A    0.0000
   1242 O          76.2465  151.1430   19.9868 O.3     177      M_A    0.0000
   1243 H          74.2131  149.7841   19.3981 H       177      M_A    0.0000
   1244 H          75.2958  148.4131   19.6716 H       177      M_A    0.0000
   1245 H          77.2287  149.5669   19.0176 H       177      M_A    0.0000
   1246 H          76.3586  150.7006   17.9940 H       177      M_A    0.0000
   1247 C          76.7716  150.6446   21.2004 C.3     178      M_A    0.0000
   1248 C          77.7125  151.6411   21.8711 C.3     178      M_A    0.0000
   1249 O          77.4487  151.7134   23.2722 O.3     178      M_A    0.0000
   1250 H          75.9433  150.3747   21.8641 H       178      M_A    0.0000
   1251 H          77.3282  149.7276   20.9753 H       178      M_A    0.0000
   1252 H          78.7589  151.3662   21.6749 H       178      M_A    0.0000
   1253 H          77.5761  152.6486   21.4587 H       178      M_A    0.0000
   1254 C          78.1760  152.7603   23.8820 C.3     179      M_A    0.0000
   1255 C          78.6565  152.3865   25.2812 C.3     179      M_A    0.0000
   1256 O          80.0819  152.4252   25.3478 O.3     179      M_A    0.0000
   1257 H          79.0164  153.0353   23.2358 H       179      M_A    0.0000
   1258 H          77.5152  153.6317   23.9551 H       179      M_A    0.0000
   1259 H          78.2029  153.0530   26.0288 H       179      M_A    0.0000
   1260 H          78.3428  151.3687   25.5451 H       179      M_A    0.0000
   1261 C          80.5566  151.9075   26.5740 C.3     180      M_A    0.0000
   1262 C          82.0774  151.9776   26.6765 C.3     180      M_A    0.0000
   1263 O          82.4723  153.0454   27.5377 O.3     180      M_A    0.0000
   1264 H          80.0795  152.4477   27.3986 H       180      M_A    0.0000
   1265 H          80.2448  150.8588   26.6403 H       180      M_A    0.0000
   1266 H          82.4792  151.0146   27.0234 H       180      M_A    0.0000
   1267 H          82.5289  152.1638   25.6940 H       180      M_A    0.0000
   1268 C          83.8039  152.8854   27.9829 C.3     181      M_A    0.0000
   1269 C          84.6657  154.1038   27.6653 C.3     181      M_A    0.0000
   1270 O          85.2179  154.6519   28.8622 O.3     181      M_A    0.0000
   1271 H          83.7985  152.6743   29.0575 H       181      M_A    0.0000
   1272 H          84.2260  152.0105   27.4753 H       181      M_A    0.0000
   1273 H          85.4543  153.8343   26.9480 H       181      M_A    0.0000
   1274 H          84.0706  154.8918   27.1871 H       181      M_A    0.0000
   1275 C          86.5243  155.1469   28.6497 C.3     182      M_A    0.0000
   1276 C          86.6944  156.5663   29.1831 C.3     182      M_A    0.0000
   1277 O          87.1293  156.5412   30.5426 O.3     182      M_A    0.0000
   1278 H          87.2450  154.4626   29.1100 H       182      M_A    0.0000
   1279 H          86.7124  155.1490   27.5699 H       182      M_A    0.0000
   1280 H          87.3954  157.1284   28.5494 H       182      M_A    0.0000
   1281 H          85.7441  157.1138   29.1522 H       182      M_A    0.0000
   1282 C          86.9105  157.7840   31.1785 C.3     183      M_A    0.0000
   1283 C          85.4311  158.0349   31.4551 C.3     183      M_A    0.0000
   1284 O          85.2717  158.8942   32.5839 O.3     183      M_A    0.0000
   1285 H          87.4973  157.8208   32.1026 H       183      M_A    0.0000
   1286 H          87.2860  158.5723   30.5160 H       183      M_A    0.0000
   1287 H          84.9436  158.4527   30.5625 H       183      M_A    0.0000
   1288 H          84.9092  157.0965   31.6804 H       183      M_A    0.0000
   1289 C          85.8869  160.1483   32.3702 C.3     184      M_A    0.0000
   1290 C          84.8932  161.3011   32.4783 C.3     184      M_A    0.0000
   1291 O          84.9999  161.9359   33.7525 O.3     184      M_A    0.0000
   1292 H          86.7105  160.2682   33.0821 H       184      M_A    0.0000
   1293 H          86.3177  160.1449   31.3624 H       184      M_A    0.0000
   1294 H          85.0528  162.0178   31.6599 H       184      M_A    0.0000
   1295 H          83.8618  160.9412   32.3760 H       184      M_A    0.0000
   1296 C          84.5862  163.2858   33.6940 C.3     185      M_A    0.0000
   1297 C          84.4571  163.9074   35.0815 C.3     185      M_A    0.0000
   1298 O          85.6426  164.6270   35.4198 O.3     185      M_A    0.0000
   1299 H          85.2906  163.8489   33.0726 H       185      M_A    0.0000
   1300 H          83.6088  163.3176   33.1989 H       185      M_A    0.0000
   1301 H          83.5697  164.5551   35.1261 H       185      M_A    0.0000
   1302 H          84.3127  163.1340   35.8462 H       185      M_A    0.0000
   1303 C          85.8888  164.5935   36.8109 C.3     186      M_A    0.0000
   1304 C          86.3606  163.2195   37.2775 C.3     186      M_A    0.0000
   1305 O          87.4841  163.3455   38.1491 O.3     186      M_A    0.0000
   1306 H          86.6197  165.3691   37.0633 H       186      M_A    0.0000
   1307 H          84.9527  164.8403   37.3248 H       186      M_A    0.0000
   1308 H          85.5354  162.6799   37.7642 H       186      M_A    0.0000
   1309 H          86.6730  162.6017   36.4262 H       186      M_A    0.0000
   1310 C          87.0975  163.2656   39.5060 C.3     187      M_A    0.0000
   1311 C          88.0401  162.3848   40.3207 C.3     187      M_A    0.0000
   1312 O          89.0598  163.1748   40.9322 O.3     187      M_A    0.0000
   1313 H          87.0431  164.2772   39.9222 H       187      M_A    0.0000
   1314 H          86.0896  162.8368   39.5445 H       187      M_A    0.0000
   1315 H          87.4733  161.8139   41.0701 H       187      M_A    0.0000
   1316 H          88.5372  161.6450   39.6809 H       187      M_A    0.0000
   1317 C          90.1640  162.3832   41.3211 C.3     188      M_A    0.0000
   1318 C          91.2246  163.1982   42.0552 C.3     188      M_A    0.0000
   1319 O          91.8957  162.3906   43.0223 O.3     188      M_A    0.0000
   1320 H          89.8076  161.5513   41.9379 H       188      M_A    0.0000
   1321 H          90.6089  161.9569   40.4147 H       188      M_A    0.0000
   1322 H          91.9336  163.6335   41.3364 H       188      M_A    0.0000
   1323 H          90.7708  164.0420   42.5899 H       188      M_A    0.0000
   1324 C          92.8790  161.5732   42.4207 C.3     189      M_A    0.0000
   1325 C          94.0442  161.2883   43.3637 C.3     189      M_A    0.0000
   1326 O          94.3803  159.9011   43.3391 O.3     189      M_A    0.0000
   1327 H          92.4109  160.6440   42.0787 H       189      M_A    0.0000
   1328 H          93.2587  162.0980   41.5365 H       189      M_A    0.0000
   1329 H          94.9087  161.9139   43.0987 H       189      M_A    0.0000
   1330 H          93.7838  161.5448   44.3982 H       189      M_A    0.0000
   1331 C          95.3298  159.5812   44.3356 C.3     190      M_A    0.0000
   1332 C          96.5155  158.8046   43.7708 C.3     190      M_A    0.0000
   1333 O          97.7189  159.5605   43.9058 O.3     190      M_A    0.0000
   1334 H          95.6587  160.5040   44.8252 H       190      M_A    0.0000
   1335 H          94.8300  158.9648   45.0917 H       190      M_A    0.0000
   1336 H          96.5997  157.8268   44.2666 H       190      M_A    0.0000
   1337 H          96.3759  158.5972   42.7024 H       190      M_A    0.0000
   1338 C          98.8503  158.7191   44.0007 C.3     191      M_A    0.0000
   1339 C          99.0791  157.9183   42.7222 C.3     191      M_A    0.0000
   1340 O         100.4749  157.8088   42.4433 O.3     191      M_A    0.0000
   1341 H          99.7273  159.3263   44.2491 H       191      M_A    0.0000
   1342 H          98.6836  158.0226   44.8303 H       191      M_A    0.0000
   1343 H          98.6091  156.9279   42.8056 H       191      M_A    0.0000
   1344 H          98.6098  158.4106   41.8613 H       191      M_A    0.0000
   1345 C         101.2374  157.7579   43.6320 C.3     192      M_A    0.0000
   1346 C         102.1651  156.5470   43.6675 C.3     192      M_A    0.0000
   1347 O         103.5051  156.9341   43.3633 O.3     192      M_A    0.0000
   1348 H         101.8013  158.6911   43.7351 H       192      M_A    0.0000
   1349 H         100.5414  157.6962   44.4764 H       192      M_A    0.0000
   1350 H         102.1047  156.0512   44.6470 H       192      M_A    0.0000
   1351 H         101.8626  155.7987   42.9243 H       192      M_A    0.0000
   1352 C         104.3462  155.8090   43.2097 C.3     193      M_A    0.0000
   1353 C         105.6305  156.1504   42.4600 C.3     193      M_A    0.0000
   1354 O         106.6249  156.6319   43.3641 O.3     193      M_A    0.0000
   1355 H         104.5648  155.3887   44.1972 H       193      M_A    0.0000
   1356 H         103.7948  155.0511   42.6416 H       193      M_A    0.0000
   1357 H         105.9887  155.2735   41.9018 H       193      M_A    0.0000
   1358 H         105.4536  156.9377   41.7166 H       193      M_A    0.0000
   1359 C         106.1062  156.7854   44.6695 C.3     194      M_A    0.0000
   1360 C         107.0853  157.5004   45.5959 C.3     194      M_A    0.0000
   1361 O         106.6438  158.8322   45.8590 O.3     194      M_A    0.0000
   1362 H         105.1519  157.3201   44.6143 H       194      M_A    0.0000
   1363 H         105.9033  155.7861   45.0712 H       194      M_A    0.0000
   1364 H         107.2121  156.9299   46.5273 H       194      M_A    0.0000
   1365 H         108.0802  157.5685   45.1385 H       194      M_A    0.0000
   1366 C         107.7316  159.7300   45.9459 C.3     195      M_A    0.0000
   1367 C         108.0343  160.1273   47.3877 C.3     195      M_A    0.0000
   1368 O         109.3508  159.7150   47.7545 O.3     195      M_A    0.0000
   1369 H         108.6073  159.2777   45.4683 H       195      M_A    0.0000
   1370 H         107.4718  160.6302   45.3772 H       195      M_A    0.0000
   1371 H         107.9039  161.2113   47.5180 H       195      M_A    0.0000
   1372 H         107.3341  159.6470   48.0825 H       195      M_A    0.0000
   1373 C         110.3064  160.7135   47.4600 C.3     196      M_A    0.0000
   1374 C         111.6094  160.5050   48.2260 C.3     196      M_A    0.0000
   1375 O         112.6787  161.2104   47.5960 O.3     196      M_A    0.0000
   1376 H         110.4820  160.7323   46.3791 H       196      M_A    0.0000
   1377 H         109.8797  161.6824   47.7434 H       196      M_A    0.0000
   1378 H         111.4877  160.8160   49.2736 H       196      M_A    0.0000
   1379 H         111.8852  159.4434   48.2498 H       196      M_A    0.0000
   1380 C         112.2797  162.5061   47.1974 C.3     197      M_A    0.0000
   1381 C         112.5327  163.5450   48.2860 C.3     197      M_A    0.0000
   1382 O         113.7596  164.2338   48.0449 O.3     197      M_A    0.0000
   1383 H         112.7991  162.7706   46.2702 H       197      M_A    0.0000
   1384 H         111.2061  162.4758   46.9789 H       197      M_A    0.0000
   1385 H         111.6867  164.2446   48.3469 H       197      M_A    0.0000
   1386 H         112.6111  163.0696   49.2717 H       197      M_A    0.0000
   1387 C         113.8440  165.4217   48.8056 C.3     198      M_A    0.0000
   1388 C         113.9696  165.1390   50.2997 C.3     198      M_A    0.0000
   1389 O         115.2045  165.6481   50.8033 O.3     198      M_A    0.0000
   1390 H         114.6881  166.0185   48.4439 H       198      M_A    0.0000
   1391 H         112.9297  166.0000   48.6298 H       198      M_A    0.0000
   1392 H         113.1117  165.5645   50.8399 H       198      M_A    0.0000
   1393 H         113.9539  164.0600   50.4978 H       198      M_A    0.0000
   1394 C         115.5031  165.1142   52.0772 C.3     199      M_A    0.0000
   1395 C         115.9057  163.6443   52.0037 C.3     199      M_A    0.0000
   1396 O         116.4296  163.2056   53.2570 O.3     199      M_A    0.0000
   1397 H         116.2907  165.7170   52.5417 H       199      M_A    0.0000
   1398 H         114.6055  165.2053   52.6995 H       199      M_A    0.0000
   1399 H         115.0480  163.0310   51.6921 H       199      M_A    0.0000
   1400 H         116.6863  163.4884   51.2486 H       199      M_A    0.0000
   1401 C         115.5088  163.4223   54.3069 C.3     200      M_A    0.0000
   1402 C         116.1948  163.4849   55.6684 C.3     200      M_A    0.0000
   1403 O         115.8145  164.6708   56.3662 O.3     200      M_A    0.0000
   1404 H         114.9463  164.3400   54.1050 H       200      M_A    0.0000
   1405 H         114.7960  162.5898   54.3070 H       200      M_A    0.0000
   1406 H         115.9601  162.5840   56.2534 H       200      M_A    0.0000
   1407 H         117.2862  163.5047   55.5575 H       200      M_A    0.0000
   1408 C         116.1283  164.5847   57.7414 C.3     201      M_A    0.0000
   1409 C         115.6066  165.7852   58.5255 C.3     201      M_A    0.0000
   1410 O         114.8140  165.3543   59.6318 O.3     201      M_A    0.0000
   1411 H         115.7278  163.6471   58.1413 H       201      M_A    0.0000
   1412 H         117.2195  164.5462   57.8363 H       201      M_A    0.0000
   1413 H         116.4445  166.4161   58.8555 H       201      M_A    0.0000
   1414 H         114.9725  166.4206   57.8947 H       201      M_A    0.0000
   1415 C         114.7433  166.3470   60.6351 C.3     202      M_A    0.0000
   1416 C         114.3891  167.7167   60.0636 C.3     202      M_A    0.0000
   1417 O         113.6639  168.4867   61.0222 O.3     202      M_A    0.0000
   1418 H         114.0182  166.0361   61.3948 H       202      M_A    0.0000
   1419 H         115.7249  166.4077   61.1189 H       202      M_A    0.0000
   1420 H         115.3001  168.2391   59.7378 H       202      M_A    0.0000
   1421 H         113.7552  167.6187   59.1735 H       202      M_A    0.0000
   1422 C         113.0644  169.6202   60.4284 C.3     203      M_A    0.0000
   1423 C         113.2137  170.8681   61.2935 C.3     203      M_A    0.0000
   1424 O         114.2947  171.6749   60.8259 O.3     203      M_A    0.0000
   1425 H         113.4976  169.7741   59.4344 H       203      M_A    0.0000
   1426 H         111.9976  169.4065   60.2955 H       203      M_A    0.0000
   1427 H         112.2709  171.4335   61.3100 H       203      M_A    0.0000
   1428 H         113.4305  170.6001   62.3351 H       203      M_A    0.0000
   1429 C         114.5342  172.7687   61.6879 C.3     204      M_A    0.0000
   1430 C         115.0988  172.3258   63.0344 C.3     204      M_A    0.0000
   1431 O         116.0608  173.2681   63.5082 O.3     204      M_A    0.0000
   1432 H         115.2072  173.4751   61.1902 H       204      M_A    0.0000
   1433 H         113.5800  173.2815   61.8548 H       204      M_A    0.0000
   1434 H         114.2845  172.1865   63.7600 H       204      M_A    0.0000
   1435 H         115.6039  171.3556   62.9483 H       204      M_A    0.0000
   1436 C         116.8119  172.7438   64.5842 C.3     205      M_A    0.0000
   1437 C         116.5718  173.5123   65.8803 C.3     205      M_A    0.0000
   1438 O         116.5602  172.6214   66.9956 O.3     205      M_A    0.0000
   1439 H         116.5716  171.6820   64.7039 H       205      M_A    0.0000
   1440 H         117.8734  172.8156   64.3208 H       205      M_A    0.0000
   1441 H         117.3327  174.2966   66.0029 H       205      M_A    0.0000
   1442 H         115.6019  174.0247   65.8590 H       205      M_A    0.0000
   1443 C         115.9000  173.1924   68.1069 C.3     206      M_A    0.0000
   1444 C         116.5553  172.8002   69.4278 C.3     206      M_A    0.0000
   1445 O         116.9850  173.9619   70.1377 O.3     206      M_A    0.0000
   1446 H         115.8737  174.2807   67.9865 H       206      M_A    0.0000
   1447 H         114.8644  172.8335   68.1046 H       206      M_A    0.0000
   1448 H         115.8619  172.1967   70.0310 H       206      M_A    0.0000
   1449 H         117.4398  172.1740   69.2566 H       206      M_A    0.0000
   1450 C         117.1815  173.6864   71.5097 C.3     207      M_A    0.0000
   1451 C         117.8057  174.8665   72.2486 C.3     207      M_A    0.0000
   1452 O         117.0039  175.2351   73.3707 O.3     207      M_A    0.0000
   1453 H         116.2236  173.4014   71.9577 H       207      M_A    0.0000
   1454 H         117.8534  172.8239   71.5873 H       207      M_A    0.0000
   1455 H         118.8332  174.6222   72.5543 H       207      M_A    0.0000
   1456 H         117.8792  175.7445   71.5948 H       207      M_A    0.0000
   1457 C         117.7348  175.1541   74.5774 C.3     208      M_A    0.0000
   1458 C         117.2700  176.1863   75.6005 C.3     208      M_A    0.0000
   1459 O         116.9717  175.5568   76.8465 O.3     208      M_A    0.0000
   1460 H         117.6537  174.1375   74.9768 H       208      M_A    0.0000
   1461 H         118.7903  175.3357   74.3450 H       208      M_A    0.0000
   1462 H         118.0310  176.9707   75.7208 H       208      M_A    0.0000
   1463 H         116.3573  176.6920   75.2612 H       208      M_A    0.0000
   1464 C         116.0413  176.3104   77.5971 C.3     209      M_A    0.0000
   1465 C         115.8637  175.7610   79.0095 C.3     209      M_A    0.0000
   1466 O         115.5877  176.8192   79.9270 O.3     209      M_A    0.0000
   1467 H         116.3630  177.3572   77.6177 H       209      M_A    0.0000
   1468 H         115.0774  176.2701   77.0771 H       209      M_A    0.0000
   1469 H         115.0687  175.0016   79.0240 H       209      M_A    0.0000
   1470 H         116.7764  175.2582   79.3528 H       209      M_A    0.0000
   1471 C         116.7248  177.6314   80.1372 C.3     210      M_A    0.0000
   1472 C         116.3762  178.9337   80.8517 C.3     210      M_A    0.0000
   1473 O         116.2196  178.7094   82.2528 O.3     210      M_A    0.0000
   1474 H         117.4728  177.0608   80.6980 H       210      M_A    0.0000
   1475 H         117.1551  177.8687   79.1575 H       210      M_A    0.0000
   1476 H         117.1451  179.6938   80.6519 H       210      M_A    0.0000
   1477 H         115.4308  179.3459   80.4773 H       210      M_A    0.0000
   1478 C         114.9859  178.0838   82.5417 C.3     211      M_A    0.0000
   1479 C         114.1157  178.9300   83.4663 C.3     211      M_A    0.0000
   1480 O         112.8830  179.2625   82.8278 O.3     211      M_A    0.0000
   1481 H         114.4676  177.8648   81.6021 H       211      M_A    0.0000
   1482 H         115.1998  177.1277   83.0329 H       211      M_A    0.0000
   1483 H         113.9448  178.4016   84.4153 H       211      M_A    0.0000
   1484 H         114.6166  179.8716   83.7239 H       211      M_A    0.0000
   1485 C         112.2719  180.3829   83.4345 C.3     212      M_A    0.0000
   1486 C         113.0047  181.6816   83.1114 C.3     212      M_A    0.0000
   1487 O         112.3710  182.7873   83.7547 O.3     212      M_A    0.0000
   1488 H         111.2237  180.4318   83.1208 H       212      M_A    0.0000
   1489 H         112.2863  180.2283   84.5195 H       212      M_A    0.0000
   1490 H         114.0623  181.6029   83.4013 H       212      M_A    0.0000
   1491 H         112.9950  181.8798   82.0323 H       212      M_A    0.0000
   1492 C         113.0566  183.1632   84.9318 C.3     213      M_A    0.0000
   1493 C         114.4361  183.7426   84.6325 C.3     213      M_A    0.0000
   1494 O         114.6924  184.8774   85.4596 O.3     213      M_A    0.0000
   1495 H         112.4415  183.8758   85.4915 H       213      M_A    0.0000
   1496 H         113.1752  182.2681   85.5531 H       213      M_A    0.0000
   1497 H         115.2082  182.9706   84.7622 H       213      M_A    0.0000
   1498 H         114.5045  184.0744   83.5889 H       213      M_A    0.0000
   1499 C         115.7982  185.6210   84.9893 C.3     214      M_A    0.0000
   1500 C         115.7967  187.0510   85.5215 C.3     214      M_A    0.0000
   1501 O         117.0757  187.3860   86.0599 O.3     214      M_A    0.0000
   1502 H         116.7217  185.0989   85.2614 H       214      M_A    0.0000
   1503 H         115.7440  185.6500   83.8949 H       214      M_A    0.0000
   1504 H         115.5015  187.7514   84.7269 H       214      M_A    0.0000
   1505 H         115.0603  187.1697   86.3260 H       214      M_A    0.0000
   1506 C         116.9625  188.3004   87.1313 C.3     215      M_A    0.0000
   1507 C         117.9838  189.4297   87.0326 C.3     215      M_A    0.0000
   1508 O         117.3366  190.6990   87.1218 O.3     215      M_A    0.0000
   1509 H         115.9405  188.6931   87.1595 H       215      M_A    0.0000
   1510 H         117.1318  187.7498   88.0637 H       215      M_A    0.0000
   1511 H         118.7513  189.3165   87.8118 H       215      M_A    0.0000
   1512 H         118.5130  189.3976   86.0720 H       215      M_A    0.0000
   1513 C         116.5243  190.7855   88.2749 C.3     216      M_A    0.0000
   1514 C         116.5239  192.1893   88.8729 C.3     216      M_A    0.0000
   1515 O         115.2387  192.7940   88.7294 O.3     216      M_A    0.0000
   1516 H         115.5087  190.4634   88.0216 H       216      M_A    0.0000
   1517 H         116.9189  190.0835   89.0185 H       216      M_A    0.0000
   1518 H         116.8331  192.1526   89.9275 H       216      M_A    0.0000
   1519 H         117.2493  192.8341   88.3614 H       216      M_A    0.0000
   1520 C         115.2078  194.0853   89.3026 C.3     217      M_A    0.0000
   1521 C         116.1292  195.0590   88.5740 C.3     217      M_A    0.0000
   1522 O         115.5477  196.3621   88.5320 O.3     217      M_A    0.0000
   1523 H         114.1746  194.4486   89.3094 H       217      M_A    0.0000
   1524 H         115.5358  193.9993   90.3449 H       217      M_A    0.0000
   1525 H         117.1180  195.0777   89.0546 H       217      M_A    0.0000
   1526 H         116.2965  194.7404   87.5375 H       217      M_A    0.0000
   1527 C         115.7557  197.0606   89.7426 C.3     218      M_A    0.0000
   1528 C         115.4395  198.5473   89.6093 C.3     218      M_A    0.0000
   1529 O         115.2331  199.1324   90.8950 O.3     218      M_A    0.0000
   1530 H         115.1525  196.5973   90.5307 H       218      M_A    0.0000
   1531 H         116.8095  196.9458   90.0211 H       218      M_A    0.0000
   1532 H         116.2442  199.0588   89.0617 H       218      M_A    0.0000
   1533 H         114.5230  198.7030   89.0266 H       218      M_A    0.0000
   1534 C         116.4592  199.4500   91.5215 C.3     219      M_A    0.0000
   1535 C         117.1951  200.5781   90.8045 C.3     219      M_A    0.0000
   1536 O         117.3158  201.7175   91.6559 O.3     219      M_A    0.0000
   1537 H         116.2694  199.7053   92.5695 H       219      M_A    0.0000
   1538 H         117.0873  198.5519   91.5077 H       219      M_A    0.0000
   1539 H         118.1796  200.2302   90.4600 H       219      M_A    0.0000
   1540 H         116.6490  200.8949   89.9072 H       219      M_A    0.0000
   1541 C         118.1390  202.7101   91.0780 C.3     220      M_A    0.0000
   1542 C         118.2438  203.9526   91.9575 C.3     220      M_A    0.0000
   1543 O         119.5954  204.1649   92.3649 O.3     220      M_A    0.0000
   1544 H         119.1274  202.2828   90.8782 H       220      M_A    0.0000
   1545 H         117.6995  202.9936   90.1148 H       220      M_A    0.0000
   1546 H         117.8440  204.8283   91.4263 H       220      M_A    0.0000
   1547 H         117.6401  203.8419   92.8669 H       220      M_A    0.0000
   1548 C         119.7863  205.4739   92.8617 C.3     221      M_A    0.0000
   1549 C         121.2343  205.7273   93.2705 C.3     221      M_A    0.0000
   1550 O         121.6129  207.0695   92.9655 O.3     221      M_A    0.0000
   1551 H         119.4571  206.1947   92.1056 H       221      M_A    0.0000
   1552 H         119.1430  205.5981   93.7403 H       221      M_A    0.0000
   1553 H         121.3713  205.5062   94.3388 H       221      M_A    0.0000
   1554 H         121.9176  205.0620   92.7281 H       221      M_A    0.0000
   1555 C         120.5274  207.9610   93.1202 C.3     222      M_A    0.0000
   1556 C         120.7357  208.9223   94.2867 C.3     222      M_A    0.0000
   1557 O         121.0328  210.2337   93.8075 O.3     222      M_A    0.0000
   1558 H         120.3753  208.5050   92.1819 H       222      M_A    0.0000
   1559 H         119.6266  207.3656   93.3079 H       222      M_A    0.0000
   1560 H         119.8501  208.9257   94.9383 H       222      M_A    0.0000
   1561 H         121.5779  208.6028   94.9131 H       222      M_A    0.0000
   1562 C         119.8581  210.9302   93.4443 C.3     223      M_A    0.0000
   1563 C         118.9856  211.2542   94.6534 C.3     223      M_A    0.0000
   1564 O         119.4540  212.4338   95.3068 O.3     223      M_A    0.0000
   1565 H         120.1355  211.8402   92.9018 H       223      M_A    0.0000
   1566 H         119.2887  210.2947   92.7563 H       223      M_A    0.0000
   1567 H         117.9349  211.3574   94.3465 H       223      M_A    0.0000
   1568 H         119.0135  210.4390   95.3873 H       223      M_A    0.0000
   1569 C         120.8608  212.5434   95.2307 C.3     224      M_A    0.0000
   1570 C         121.5249  212.3686   96.5932 C.3     224      M_A    0.0000
   1571 O         122.9285  212.1567   96.4424 O.3     224      M_A    0.0000
   1572 H         121.2379  211.8098   94.5101 H       224      M_A    0.0000
   1573 H         121.1007  213.5407   94.8446 H       224      M_A    0.0000
   1574 H         121.3183  213.2404   97.2307 H       224      M_A    0.0000
   1575 H         121.1159  211.4977   97.1205 H       224      M_A    0.0000
   1576 C         123.4687  212.9746   95.4245 C.3     225      M_A    0.0000
   1577 C         122.9577  214.4098   95.5096 C.3     225      M_A    0.0000
   1578 O         123.3150  215.1387   94.3353 O.3     225      M_A    0.0000
   1579 H         124.5619  212.9402   95.4809 H       225      M_A    0.0000
   1580 H         123.1731  212.5497   94.4584 H       225      M_A    0.0000
   1581 H         121.8698  214.4165   95.6688 H       225      M_A    0.0000
   1582 H         123.3978  214.9330   96.3676 H       225      M_A    0.0000
   1583 C         123.3193  214.3080   93.1922 C.3     226      M_A    0.0000
   1584 C         124.6340  213.5489   93.0390 C.3     226      M_A    0.0000
   1585 O         124.4254  212.1471   93.2103 O.3     226      M_A    0.0000
   1586 H         122.4694  213.6194   93.2476 H       226      M_A    0.0000
   1587 H         123.1730  214.9449   92.3122 H       226      M_A    0.0000
   1588 H         125.0878  213.7692   92.0621 H       226      M_A    0.0000
   1589 H         125.3617  213.8676   93.7957 H       226      M_A    0.0000
   1590 H         124.2677  211.7005   92.3523 H       226      M_A    0.0000
   1591 H         216.4133  208.3932   91.7522 H         0      M_A    0.0000
@<TRIPOS>BOND
     1     1     2      1
     2     1     4      1
     3     1     5      1
     4     1  1591      1
     5     2     3      1
     6     2     6      1
     7     2     7      1
     8     3     8      1
     9     8     9      1
    10     8    11      1
    11     8    12      1
    12     9    10      1
    13     9    13      1
    14     9    14      1
    15    10    15      1
    16    15    16      1
    17    15    18      1
    18    15    19      1
    19    16    17      1
    20    16    20      1
    21    16    21      1
    22    17    22      1
    23    22    23      1
    24    22    25      1
    25    22    26      1
    26    23    24      1
    27    23    27      1
    28    23    28      1
    29    24    29      1
    30    29    30      1
    31    29    32      1
    32    29    33      1
    33    30    31      1
    34    30    34      1
    35    30    35      1
    36    31    36      1
    37    36    37      1
    38    36    39      1
    39    36    40      1
    40    37    38      1
    41    37    41      1
    42    37    42      1
    43    38    43      1
    44    43    44      1
    45    43    46      1
    46    43    47      1
    47    44    45      1
    48    44    48      1
    49    44    49      1
    50    45    50      1
    51    50    51      1
    52    50    53      1
    53    50    54      1
    54    51    52      1
    55    51    55      1
    56    51    56      1
    57    52    57      1
    58    57    58      1
    59    57    60      1
    60    57    61      1
    61    58    59      1
    62    58    62      1
    63    58    63      1
    64    59    64      1
    65    64    65      1
    66    64    67      1
    67    64    68      1
    68    65    66      1
    69    65    69      1
    70    65    70      1
    71    66    71      1
    72    71    72      1
    73    71    74      1
    74    71    75      1
    75    72    73      1
    76    72    76      1
    77    72    77      1
    78    73    78      1
    79    78    79      1
    80    78    81      1
    81    78    82      1
    82    79    80      1
    83    79    83      1
    84    79    84      1
    85    80    85      1
    86    85    86      1
    87    85    88      1
    88    85    89      1
    89    86    87      1
    90    86    90      1
    91    86    91      1
    92    87    92      1
    93    92    93      1
    94    92    95      1
    95    92    96      1
    96    93    94      1
    97    93    97      1
    98    93    98      1
    99    94    99      1
   100    99   100      1
   101    99   102      1
   102    99   103      1
   103   100   101      1
   104   100   104      1
   105   100   105      1
   106   101   106      1
   107   106   107      1
   108   106   109      1
   109   106   110      1
   110   107   108      1
   111   107   111      1
   112   107   112      1
   113   108   113      1
   114   113   114      1
   115   113   116      1
   116   113   117      1
   117   114   115      1
   118   114   118      1
   119   114   119      1
   120   115   120      1
   121   120   121      1
   122   120   123      1
   123   120   124      1
   124   121   122      1
   125   121   125      1
   126   121   126      1
   127   122   127      1
   128   127   128      1
   129   127   130      1
   130   127   131      1
   131   128   129      1
   132   128   132      1
   133   128   133      1
   134   129   134      1
   135   134   135      1
   136   134   137      1
   137   134   138      1
   138   135   136      1
   139   135   139      1
   140   135   140      1
   141   136   141      1
   142   141   142      1
   143   141   144      1
   144   141   145      1
   145   142   143      1
   146   142   146      1
   147   142   147      1
   148   143   148      1
   149   148   149      1
   150   148   151      1
   151   148   152      1
   152   149   150      1
   153   149   153      1
   154   149   154      1
   155   150   155      1
   156   155   156      1
   157   155   158      1
   158   155   159      1
   159   156   157      1
   160   156   160      1
   161   156   161      1
   162   157   162      1
   163   162   163      1
   164   162   165      1
   165   162   166      1
   166   163   164      1
   167   163   167      1
   168   163   168      1
   169   164   169      1
   170   169   170      1
   171   169   172      1
   172   169   173      1
   173   170   171      1
   174   170   174      1
   175   170   175      1
   176   171   176      1
   177   176   177      1
   178   176   179      1
   179   176   180      1
   180   177   178      1
   181   177   181      1
   182   177   182      1
   183   178   183      1
   184   183   184      1
   185   183   186      1
   186   183   187      1
   187   184   185      1
   188   184   188      1
   189   184   189      1
   190   185   190      1
   191   190   191      1
   192   190   193      1
   193   190   194      1
   194   191   192      1
   195   191   195      1
   196   191   196      1
   197   192   197      1
   198   197   198      1
   199   197   200      1
   200   197   201      1
   201   198   199      1
   202   198   202      1
   203   198   203      1
   204   199   204      1
   205   204   205      1
   206   204   207      1
   207   204   208      1
   208   205   206      1
   209   205   209      1
   210   205   210      1
   211   206   211      1
   212   211   212      1
   213   211   214      1
   214   211   215      1
   215   212   213      1
   216   212   216      1
   217   212   217      1
   218   213   218      1
   219   218   219      1
   220   218   221      1
   221   218   222      1
   222   219   220      1
   223   219   223      1
   224   219   224      1
   225   220   225      1
   226   225   226      1
   227   225   228      1
   228   225   229      1
   229   226   227      1
   230   226   230      1
   231   226   231      1
   232   227   232      1
   233   232   233      1
   234   232   235      1
   235   232   236      1
   236   233   234      1
   237   233   237      1
   238   233   238      1
   239   234   239      1
   240   239   240      1
   241   239   242      1
   242   239   243      1
   243   240   241      1
   244   240   244      1
   245   240   245      1
   246   241   246      1
   247   246   247      1
   248   246   249      1
   249   246   250      1
   250   247   248      1
   251   247   251      1
   252   247   252      1
   253   248   253      1
   254   253   254      1
   255   253   256      1
   256   253   257      1
   257   254   255      1
   258   254   258      1
   259   254   259      1
   260   255   260      1
   261   260   261      1
   262   260   263      1
   263   260   264      1
   264   261   262      1
   265   261   265      1
   266   261   266      1
   267   262   267      1
   268   267   268      1
   269   267   270      1
   270   267   271      1
   271   268   269      1
   272   268   272      1
   273   268   273      1
   274   269   274      1
   275   274   275      1
   276   274   277      1
   277   274   278      1
   278   275   276      1
   279   275   279      1
   280   275   280      1
   281   276   281      1
   282   281   282      1
   283   281   284      1
   284   281   285      1
   285   282   283      1
   286   282   286      1
   287   282   287      1
   288   283   288      1
   289   288   289      1
   290   288   291      1
   291   288   292      1
   292   289   290      1
   293   289   293      1
   294   289   294      1
   295   290   295      1
   296   295   296      1
   297   295   298      1
   298   295   299      1
   299   296   297      1
   300   296   300      1
   301   296   301      1
   302   297   302      1
   303   302   303      1
   304   302   305      1
   305   302   306      1
   306   303   304      1
   307   303   307      1
   308   303   308      1
   309   304   309      1
   310   309   310      1
   311   309   312      1
   312   309   313      1
   313   310   311      1
   314   310   314      1
   315   310   315      1
   316   311   316      1
   317   316   317      1
   318   316   319      1
   319   316   320      1
   320   317   318      1
   321   317   321      1
   322   317   322      1
   323   318   323      1
   324   323   324      1
   325   323   326      1
   326   323   327      1
   327   324   325      1
   328   324   328      1
   329   324   329      1
   330   325   330      1
   331   330   331      1
   332   330   333      1
   333   330   334      1
   334   331   332      1
   335   331   335      1
   336   331   336      1
   337   332   337      1
   338   337   338      1
   339   337   340      1
   340   337   341      1
   341   338   339      1
   342   338   342      1
   343   338   343      1
   344   339   344      1
   345   344   345      1
   346   344   347      1
   347   344   348      1
   348   345   346      1
   349   345   349      1
   350   345   350      1
   351   346   351      1
   352   351   352      1
   353   351   354      1
   354   351   355      1
   355   352   353      1
   356   352   356      1
   357   352   357      1
   358   353   358      1
   359   358   359      1
   360   358   361      1
   361   358   362      1
   362   359   360      1
   363   359   363      1
   364   359   364      1
   365   360   365      1
   366   365   366      1
   367   365   368      1
   368   365   369      1
   369   366   367      1
   370   366   370      1
   371   366   371      1
   372   367   372      1
   373   372   373      1
   374   372   375      1
   375   372   376      1
   376   373   374      1
   377   373   377      1
   378   373   378      1
   379   374   379      1
   380   379   380      1
   381   379   382      1
   382   379   383      1
   383   380   381      1
   384   380   384      1
   385   380   385      1
   386   381   386      1
   387   386   387      1
   388   386   389      1
   389   386   390      1
   390   387   388      1
   391   387   391      1
   392   387   392      1
   393   388   393      1
   394   393   394      1
   395   393   396      1
   396   393   397      1
   397   394   395      1
   398   394   398      1
   399   394   399      1
   400   395   400      1
   401   400   401      1
   402   400   403      1
   403   400   404      1
   404   401   402      1
   405   401   405      1
   406   401   406      1
   407   402   407      1
   408   407   408      1
   409   407   410      1
   410   407   411      1
   411   408   409      1
   412   408   412      1
   413   408   413      1
   414   409   414      1
   415   414   415      1
   416   414   417      1
   417   414   418      1
   418   415   416      1
   419   415   419      1
   420   415   420      1
   421   416   421      1
   422   421   422      1
   423   421   424      1
   424   421   425      1
   425   422   423      1
   426   422   426      1
   427   422   427      1
   428   423   428      1
   429   428   429      1
   430   428   431      1
   431   428   432      1
   432   429   430      1
   433   429   433      1
   434   429   434      1
   435   430   435      1
   436   435   436      1
   437   435   438      1
   438   435   439      1
   439   436   437      1
   440   436   440      1
   441   436   441      1
   442   437   442      1
   443   442   443      1
   444   442   445      1
   445   442   446      1
   446   443   444      1
   447   443   447      1
   448   443   448      1
   449   444   449      1
   450   449   450      1
   451   449   452      1
   452   449   453      1
   453   450   451      1
   454   450   454      1
   455   450   455      1
   456   451   456      1
   457   456   457      1
   458   456   459      1
   459   456   460      1
   460   457   458      1
   461   457   461      1
   462   457   462      1
   463   458   463      1
   464   463   464      1
   465   463   466      1
   466   463   467      1
   467   464   465      1
   468   464   468      1
   469   464   469      1
   470   465   470      1
   471   470   471      1
   472   470   473      1
   473   470   474      1
   474   471   472      1
   475   471   475      1
   476   471   476      1
   477   472   477      1
   478   477   478      1
   479   477   480      1
   480   477   481      1
   481   478   479      1
   482   478   482      1
   483   478   483      1
   484   479   484      1
   485   484   485      1
   486   484   487      1
   487   484   488      1
   488   485   486      1
   489   485   489      1
   490   485   490      1
   491   486   491      1
   492   491   492      1
   493   491   494      1
   494   491   495      1
   495   492   493      1
   496   492   496      1
   497   492   497      1
   498   493   498      1
   499   498   499      1
   500   498   501      1
   501   498   502      1
   502   499   500      1
   503   499   503      1
   504   499   504      1
   505   500   505      1
   506   505   506      1
   507   505   508      1
   508   505   509      1
   509   506   507      1
   510   506   510      1
   511   506   511      1
   512   507   512      1
   513   512   513      1
   514   512   515      1
   515   512   516      1
   516   513   514      1
   517   513   517      1
   518   513   518      1
   519   514   519      1
   520   519   520      1
   521   519   522      1
   522   519   523      1
   523   520   521      1
   524   520   524      1
   525   520   525      1
   526   521   526      1
   527   526   527      1
   528   526   529      1
   529   526   530      1
   530   527   528      1
   531   527   531      1
   532   527   532      1
   533   528   533      1
   534   533   534      1
   535   533   536      1
   536   533   537      1
   537   534   535      1
   538   534   538      1
   539   534   539      1
   540   535   540      1
   541   540   541      1
   542   540   543      1
   543   540   544      1
   544   541   542      1
   545   541   545      1
   546   541   546      1
   547   542   547      1
   548   547   548      1
   549   547   550      1
   550   547   551      1
   551   548   549      1
   552   548   552      1
   553   548   553      1
   554   549   554      1
   555   554   555      1
   556   554   557      1
   557   554   558      1
   558   555   556      1
   559   555   559      1
   560   555   560      1
   561   556   561      1
   562   561   562      1
   563   561   564      1
   564   561   565      1
   565   562   563      1
   566   562   566      1
   567   562   567      1
   568   563   568      1
   569   568   569      1
   570   568   571      1
   571   568   572      1
   572   569   570      1
   573   569   573      1
   574   569   574      1
   575   570   575      1
   576   575   576      1
   577   575   578      1
   578   575   579      1
   579   576   577      1
   580   576   580      1
   581   576   581      1
   582   577   582      1
   583   582   583      1
   584   582   585      1
   585   582   586      1
   586   583   584      1
   587   583   587      1
   588   583   588      1
   589   584   589      1
   590   589   590      1
   591   589   592      1
   592   589   593      1
   593   590   591      1
   594   590   594      1
   595   590   595      1
   596   591   596      1
   597   596   597      1
   598   596   599      1
   599   596   600      1
   600   597   598      1
   601   597   601      1
   602   597   602      1
   603   598   603      1
   604   603   604      1
   605   603   606      1
   606   603   607      1
   607   604   605      1
   608   604   608      1
   609   604   609      1
   610   605   610      1
   611   610   611      1
   612   610   613      1
   613   610   614      1
   614   611   612      1
   615   611   615      1
   616   611   616      1
   617   612   617      1
   618   617   618      1
   619   617   620      1
   620   617   621      1
   621   618   619      1
   622   618   622      1
   623   618   623      1
   624   619   624      1
   625   624   625      1
   626   624   627      1
   627   624   628      1
   628   625   626      1
   629   625   629      1
   630   625   630      1
   631   626   631      1
   632   631   632      1
   633   631   634      1
   634   631   635      1
   635   632   633      1
   636   632   636      1
   637   632   637      1
   638   633   638      1
   639   638   639      1
   640   638   641      1
   641   638   642      1
   642   639   640      1
   643   639   643      1
   644   639   644      1
   645   640   645      1
   646   645   646      1
   647   645   648      1
   648   645   649      1
   649   646   647      1
   650   646   650      1
   651   646   651      1
   652   647   652      1
   653   652   653      1
   654   652   655      1
   655   652   656      1
   656   653   654      1
   657   653   657      1
   658   653   658      1
   659   654   659      1
   660   659   660      1
   661   659   662      1
   662   659   663      1
   663   660   661      1
   664   660   664      1
   665   660   665      1
   666   661   666      1
   667   666   667      1
   668   666   669      1
   669   666   670      1
   670   667   668      1
   671   667   671      1
   672   667   672      1
   673   668   673      1
   674   673   674      1
   675   673   676      1
   676   673   677      1
   677   674   675      1
   678   674   678      1
   679   674   679      1
   680   675   680      1
   681   680   681      1
   682   680   683      1
   683   680   684      1
   684   681   682      1
   685   681   685      1
   686   681   686      1
   687   682   687      1
   688   687   688      1
   689   687   690      1
   690   687   691      1
   691   688   689      1
   692   688   692      1
   693   688   693      1
   694   689   694      1
   695   694   695      1
   696   694   697      1
   697   694   698      1
   698   695   696      1
   699   695   699      1
   700   695   700      1
   701   696   701      1
   702   701   702      1
   703   701   704      1
   704   701   705      1
   705   702   703      1
   706   702   706      1
   707   702   707      1
   708   703   708      1
   709   708   709      1
   710   708   711      1
   711   708   712      1
   712   709   710      1
   713   709   713      1
   714   709   714      1
   715   710   715      1
   716   715   716      1
   717   715   718      1
   718   715   719      1
   719   716   717      1
   720   716   720      1
   721   716   721      1
   722   717   722      1
   723   722   723      1
   724   722   725      1
   725   722   726      1
   726   723   724      1
   727   723   727      1
   728   723   728      1
   729   724   729      1
   730   729   730      1
   731   729   732      1
   732   729   733      1
   733   730   731      1
   734   730   734      1
   735   730   735      1
   736   731   736      1
   737   736   737      1
   738   736   739      1
   739   736   740      1
   740   737   738      1
   741   737   741      1
   742   737   742      1
   743   738   743      1
   744   743   744      1
   745   743   746      1
   746   743   747      1
   747   744   745      1
   748   744   748      1
   749   744   749      1
   750   745   750      1
   751   750   751      1
   752   750   753      1
   753   750   754      1
   754   751   752      1
   755   751   755      1
   756   751   756      1
   757   752   757      1
   758   757   758      1
   759   757   760      1
   760   757   761      1
   761   758   759      1
   762   758   762      1
   763   758   763      1
   764   759   764      1
   765   764   765      1
   766   764   767      1
   767   764   768      1
   768   765   766      1
   769   765   769      1
   770   765   770      1
   771   766   771      1
   772   771   772      1
   773   771   774      1
   774   771   775      1
   775   772   773      1
   776   772   776      1
   777   772   777      1
   778   773   778      1
   779   778   779      1
   780   778   781      1
   781   778   782      1
   782   779   780      1
   783   779   783      1
   784   779   784      1
   785   780   785      1
   786   785   786      1
   787   785   788      1
   788   785   789      1
   789   786   787      1
   790   786   790      1
   791   786   791      1
   792   787   792      1
   793   792   793      1
   794   792   795      1
   795   792   796      1
   796   793   794      1
   797   793   797      1
   798   793   798      1
   799   794   799      1
   800   799   800      1
   801   799   802      1
   802   799   803      1
   803   800   801      1
   804   800   804      1
   805   800   805      1
   806   801   806      1
   807   806   807      1
   808   806   809      1
   809   806   810      1
   810   807   808      1
   811   807   811      1
   812   807   812      1
   813   808   813      1
   814   813   814      1
   815   813   816      1
   816   813   817      1
   817   814   815      1
   818   814   818      1
   819   814   819      1
   820   815   820      1
   821   820   821      1
   822   820   823      1
   823   820   824      1
   824   821   822      1
   825   821   825      1
   826   821   826      1
   827   822   827      1
   828   827   828      1
   829   827   830      1
   830   827   831      1
   831   828   829      1
   832   828   832      1
   833   828   833      1
   834   829   834      1
   835   834   835      1
   836   834   837      1
   837   834   838      1
   838   835   836      1
   839   835   839      1
   840   835   840      1
   841   836   841      1
   842   841   842      1
   843   841   844      1
   844   841   845      1
   845   842   843      1
   846   842   846      1
   847   842   847      1
   848   843   848      1
   849   848   849      1
   850   848   851      1
   851   848   852      1
   852   849   850      1
   853   849   853      1
   854   849   854      1
   855   850   855      1
   856   855   856      1
   857   855   858      1
   858   855   859      1
   859   856   857      1
   860   856   860      1
   861   856   861      1
   862   857   862      1
   863   862   863      1
   864   862   865      1
   865   862   866      1
   866   863   864      1
   867   863   867      1
   868   863   868      1
   869   864   869      1
   870   869   870      1
   871   869   872      1
   872   869   873      1
   873   870   871      1
   874   870   874      1
   875   870   875      1
   876   871   876      1
   877   876   877      1
   878   876   879      1
   879   876   880      1
   880   877   878      1
   881   877   881      1
   882   877   882      1
   883   878   883      1
   884   883   884      1
   885   883   886      1
   886   883   887      1
   887   884   885      1
   888   884   888      1
   889   884   889      1
   890   885   890      1
   891   890   891      1
   892   890   893      1
   893   890   894      1
   894   891   892      1
   895   891   895      1
   896   891   896      1
   897   892   897      1
   898   897   898      1
   899   897   900      1
   900   897   901      1
   901   898   899      1
   902   898   902      1
   903   898   903      1
   904   899   904      1
   905   904   905      1
   906   904   907      1
   907   904   908      1
   908   905   906      1
   909   905   909      1
   910   905   910      1
   911   906   911      1
   912   911   912      1
   913   911   914      1
   914   911   915      1
   915   912   913      1
   916   912   916      1
   917   912   917      1
   918   913   918      1
   919   918   919      1
   920   918   921      1
   921   918   922      1
   922   919   920      1
   923   919   923      1
   924   919   924      1
   925   920   925      1
   926   925   926      1
   927   925   928      1
   928   925   929      1
   929   926   927      1
   930   926   930      1
   931   926   931      1
   932   927   932      1
   933   932   933      1
   934   932   935      1
   935   932   936      1
   936   933   934      1
   937   933   937      1
   938   933   938      1
   939   934   939      1
   940   939   940      1
   941   939   942      1
   942   939   943      1
   943   940   941      1
   944   940   944      1
   945   940   945      1
   946   941   946      1
   947   946   947      1
   948   946   949      1
   949   946   950      1
   950   947   948      1
   951   947   951      1
   952   947   952      1
   953   948   953      1
   954   953   954      1
   955   953   956      1
   956   953   957      1
   957   954   955      1
   958   954   958      1
   959   954   959      1
   960   955   960      1
   961   960   961      1
   962   960   963      1
   963   960   964      1
   964   961   962      1
   965   961   965      1
   966   961   966      1
   967   962   967      1
   968   967   968      1
   969   967   970      1
   970   967   971      1
   971   968   969      1
   972   968   972      1
   973   968   973      1
   974   969   974      1
   975   974   975      1
   976   974   977      1
   977   974   978      1
   978   975   976      1
   979   975   979      1
   980   975   980      1
   981   976   981      1
   982   981   982      1
   983   981   984      1
   984   981   985      1
   985   982   983      1
   986   982   986      1
   987   982   987      1
   988   983   988      1
   989   988   989      1
   990   988   991      1
   991   988   992      1
   992   989   990      1
   993   989   993      1
   994   989   994      1
   995   990   995      1
   996   995   996      1
   997   995   998      1
   998   995   999      1
   999   996   997      1
  1000   996  1000      1
  1001   996  1001      1
  1002   997  1002      1
  1003  1002  1003      1
  1004  1002  1005      1
  1005  1002  1006      1
  1006  1003  1004      1
  1007  1003  1007      1
  1008  1003  1008      1
  1009  1004  1009      1
  1010  1009  1010      1
  1011  1009  1012      1
  1012  1009  1013      1
  1013  1010  1011      1
  1014  1010  1014      1
  1015  1010  1015      1
  1016  1011  1016      1
  1017  1016  1017      1
  1018  1016  1019      1
  1019  1016  1020      1
  1020  1017  1018      1
  1021  1017  1021      1
  1022  1017  1022      1
  1023  1018  1023      1
  1024  1023  1024      1
  1025  1023  1026      1
  1026  1023  1027      1
  1027  1024  1025      1
  1028  1024  1028      1
  1029  1024  1029      1
  1030  1025  1030      1
  1031  1030  1031      1
  1032  1030  1033      1
  1033  1030  1034      1
  1034  1031  1032      1
  1035  1031  1035      1
  1036  1031  1036      1
  1037  1032  1037      1
  1038  1037  1038      1
  1039  1037  1040      1
  1040  1037  1041      1
  1041  1038  1039      1
  1042  1038  1042      1
  1043  1038  1043      1
  1044  1039  1044      1
  1045  1044  1045      1
  1046  1044  1047      1
  1047  1044  1048      1
  1048  1045  1046      1
  1049  1045  1049      1
  1050  1045  1050      1
  1051  1046  1051      1
  1052  1051  1052      1
  1053  1051  1054      1
  1054  1051  1055      1
  1055  1052  1053      1
  1056  1052  1056      1
  1057  1052  1057      1
  1058  1053  1058      1
  1059  1058  1059      1
  1060  1058  1061      1
  1061  1058  1062      1
  1062  1059  1060      1
  1063  1059  1063      1
  1064  1059  1064      1
  1065  1060  1065      1
  1066  1065  1066      1
  1067  1065  1068      1
  1068  1065  1069      1
  1069  1066  1067      1
  1070  1066  1070      1
  1071  1066  1071      1
  1072  1067  1072      1
  1073  1072  1073      1
  1074  1072  1075      1
  1075  1072  1076      1
  1076  1073  1074      1
  1077  1073  1077      1
  1078  1073  1078      1
  1079  1074  1079      1
  1080  1079  1080      1
  1081  1079  1082      1
  1082  1079  1083      1
  1083  1080  1081      1
  1084  1080  1084      1
  1085  1080  1085      1
  1086  1081  1086      1
  1087  1086  1087      1
  1088  1086  1089      1
  1089  1086  1090      1
  1090  1087  1088      1
  1091  1087  1091      1
  1092  1087  1092      1
  1093  1088  1093      1
  1094  1093  1094      1
  1095  1093  1096      1
  1096  1093  1097      1
  1097  1094  1095      1
  1098  1094  1098      1
  1099  1094  1099      1
  1100  1095  1100      1
  1101  1100  1101      1
  1102  1100  1103      1
  1103  1100  1104      1
  1104  1101  1102      1
  1105  1101  1105      1
  1106  1101  1106      1
  1107  1102  1107      1
  1108  1107  1108      1
  1109  1107  1110      1
  1110  1107  1111      1
  1111  1108  1109      1
  1112  1108  1112      1
  1113  1108  1113      1
  1114  1109  1114      1
  1115  1114  1115      1
  1116  1114  1117      1
  1117  1114  1118      1
  1118  1115  1116      1
  1119  1115  1119      1
  1120  1115  1120      1
  1121  1116  1121      1
  1122  1121  1122      1
  1123  1121  1124      1
  1124  1121  1125      1
  1125  1122  1123      1
  1126  1122  1126      1
  1127  1122  1127      1
  1128  1123  1128      1
  1129  1128  1129      1
  1130  1128  1131      1
  1131  1128  1132      1
  1132  1129  1130      1
  1133  1129  1133      1
  1134  1129  1134      1
  1135  1130  1135      1
  1136  1135  1136      1
  1137  1135  1138      1
  1138  1135  1139      1
  1139  1136  1137      1
  1140  1136  1140      1
  1141  1136  1141      1
  1142  1137  1142      1
  1143  1142  1143      1
  1144  1142  1145      1
  1145  1142  1146      1
  1146  1143  1144      1
  1147  1143  1147      1
  1148  1143  1148      1
  1149  1144  1149      1
  1150  1149  1150      1
  1151  1149  1152      1
  1152  1149  1153      1
  1153  1150  1151      1
  1154  1150  1154      1
  1155  1150  1155      1
  1156  1151  1156      1
  1157  1156  1157      1
  1158  1156  1159      1
  1159  1156  1160      1
  1160  1157  1158      1
  1161  1157  1161      1
  1162  1157  1162      1
  1163  1158  1163      1
  1164  1163  1164      1
  1165  1163  1166      1
  1166  1163  1167      1
  1167  1164  1165      1
  1168  1164  1168      1
  1169  1164  1169      1
  1170  1165  1170      1
  1171  1170  1171      1
  1172  1170  1173      1
  1173  1170  1174      1
  1174  1171  1172      1
  1175  1171  1175      1
  1176  1171  1176      1
  1177  1172  1177      1
  1178  1177  1178      1
  1179  1177  1180      1
  1180  1177  1181      1
  1181  1178  1179      1
  1182  1178  1182      1
  1183  1178  1183      1
  1184  1179  1184      1
  1185  1184  1185      1
  1186  1184  1187      1
  1187  1184  1188      1
  1188  1185  1186      1
  1189  1185  1189      1
  1190  1185  1190      1
  1191  1186  1191      1
  1192  1191  1192      1
  1193  1191  1194      1
  1194  1191  1195      1
  1195  1192  1193      1
  1196  1192  1196      1
  1197  1192  1197      1
  1198  1193  1198      1
  1199  1198  1199      1
  1200  1198  1201      1
  1201  1198  1202      1
  1202  1199  1200      1
  1203  1199  1203      1
  1204  1199  1204      1
  1205  1200  1205      1
  1206  1205  1206      1
  1207  1205  1208      1
  1208  1205  1209      1
  1209  1206  1207      1
  1210  1206  1210      1
  1211  1206  1211      1
  1212  1207  1212      1
  1213  1212  1213      1
  1214  1212  1215      1
  1215  1212  1216      1
  1216  1213  1214      1
  1217  1213  1217      1
  1218  1213  1218      1
  1219  1214  1219      1
  1220  1219  1220      1
  1221  1219  1222      1
  1222  1219  1223      1
  1223  1220  1221      1
  1224  1220  1224      1
  1225  1220  1225      1
  1226  1221  1226      1
  1227  1226  1227      1
  1228  1226  1229      1
  1229  1226  1230      1
  1230  1227  1228      1
  1231  1227  1231      1
  1232  1227  1232      1
  1233  1228  1233      1
  1234  1233  1234      1
  1235  1233  1236      1
  1236  1233  1237      1
  1237  1234  1235      1
  1238  1234  1238      1
  1239  1234  1239      1
  1240  1235  1240      1
  1241  1240  1241      1
  1242  1240  1243      1
  1243  1240  1244      1
  1244  1241  1242      1
  1245  1241  1245      1
  1246  1241  1246      1
  1247  1242  1247      1
  1248  1247  1248      1
  1249  1247  1250      1
  1250  1247  1251      1
  1251  1248  1249      1
  1252  1248  1252      1
  1253  1248  1253      1
  1254  1249  1254      1
  1255  1254  1255      1
  1256  1254  1257      1
  1257  1254  1258      1
  1258  1255  1256      1
  1259  1255  1259      1
  1260  1255  1260      1
  1261  1256  1261      1
  1262  1261  1262      1
  1263  1261  1264      1
  1264  1261  1265      1
  1265  1262  1263      1
  1266  1262  1266      1
  1267  1262  1267      1
  1268  1263  1268      1
  1269  1268  1269      1
  1270  1268  1271      1
  1271  1268  1272      1
  1272  1269  1270      1
  1273  1269  1273      1
  1274  1269  1274      1
  1275  1270  1275      1
  1276  1275  1276      1
  1277  1275  1278      1
  1278  1275  1279      1
  1279  1276  1277      1
  1280  1276  1280      1
  1281  1276  1281      1
  1282  1277  1282      1
  1283  1282  1283      1
  1284  1282  1285      1
  1285  1282  1286      1
  1286  1283  1284      1
  1287  1283  1287      1
  1288  1283  1288      1
  1289  1284  1289      1
  1290  1289  1290      1
  1291  1289  1292      1
  1292  1289  1293      1
  1293  1290  1291      1
  1294  1290  1294      1
  1295  1290  1295      1
  1296  1291  1296      1
  1297  1296  1297      1
  1298  1296  1299      1
  1299  1296  1300      1
  1300  1297  1298      1
  1301  1297  1301      1
  1302  1297  1302      1
  1303  1298  1303      1
  1304  1303  1304      1
  1305  1303  1306      1
  1306  1303  1307      1
  1307  1304  1305      1
  1308  1304  1308      1
  1309  1304  1309      1
  1310  1305  1310      1
  1311  1310  1311      1
  1312  1310  1313      1
  1313  1310  1314      1
  1314  1311  1312      1
  1315  1311  1315      1
  1316  1311  1316      1
  1317  1312  1317      1
  1318  1317  1318      1
  1319  1317  1320      1
  1320  1317  1321      1
  1321  1318  1319      1
  1322  1318  1322      1
  1323  1318  1323      1
  1324  1319  1324      1
  1325  1324  1325      1
  1326  1324  1327      1
  1327  1324  1328      1
  1328  1325  1326      1
  1329  1325  1329      1
  1330  1325  1330      1
  1331  1326  1331      1
  1332  1331  1332      1
  1333  1331  1334      1
  1334  1331  1335      1
  1335  1332  1333      1
  1336  1332  1336      1
  1337  1332  1337      1
  1338  1333  1338      1
  1339  1338  1339      1
  1340  1338  1341      1
  1341  1338  1342      1
  1342  1339  1340      1
  1343  1339  1343      1
  1344  1339  1344      1
  1345  1340  1345      1
  1346  1345  1346      1
  1347  1345  1348      1
  1348  1345  1349      1
  1349  1346  1347      1
  1350  1346  1350      1
  1351  1346  1351      1
  1352  1347  1352      1
  1353  1352  1353      1
  1354  1352  1355      1
  1355  1352  1356      1
  1356  1353  1354      1
  1357  1353  1357      1
  1358  1353  1358      1
  1359  1354  1359      1
  1360  1359  1360      1
  1361  1359  1362      1
  1362  1359  1363      1
  1363  1360  1361      1
  1364  1360  1364      1
  1365  1360  1365      1
  1366  1361  1366      1
  1367  1366  1367      1
  1368  1366  1369      1
  1369  1366  1370      1
  1370  1367  1368      1
  1371  1367  1371      1
  1372  1367  1372      1
  1373  1368  1373      1
  1374  1373  1374      1
  1375  1373  1376      1
  1376  1373  1377      1
  1377  1374  1375      1
  1378  1374  1378      1
  1379  1374  1379      1
  1380  1375  1380      1
  1381  1380  1381      1
  1382  1380  1383      1
  1383  1380  1384      1
  1384  1381  1382      1
  1385  1381  1385      1
  1386  1381  1386      1
  1387  1382  1387      1
  1388  1387  1388      1
  1389  1387  1390      1
  1390  1387  1391      1
  1391  1388  1389      1
  1392  1388  1392      1
  1393  1388  1393      1
  1394  1389  1394      1
  1395  1394  1395      1
  1396  1394  1397      1
  1397  1394  1398      1
  1398  1395  1396      1
  1399  1395  1399      1
  1400  1395  1400      1
  1401  1396  1401      1
  1402  1401  1402      1
  1403  1401  1404      1
  1404  1401  1405      1
  1405  1402  1403      1
  1406  1402  1406      1
  1407  1402  1407      1
  1408  1403  1408      1
  1409  1408  1409      1
  1410  1408  1411      1
  1411  1408  1412      1
  1412  1409  1410      1
  1413  1409  1413      1
  1414  1409  1414      1
  1415  1410  1415      1
  1416  1415  1416      1
  1417  1415  1418      1
  1418  1415  1419      1
  1419  1416  1417      1
  1420  1416  1420      1
  1421  1416  1421      1
  1422  1417  1422      1
  1423  1422  1423      1
  1424  1422  1425      1
  1425  1422  1426      1
  1426  1423  1424      1
  1427  1423  1427      1
  1428  1423  1428      1
  1429  1424  1429      1
  1430  1429  1430      1
  1431  1429  1432      1
  1432  1429  1433      1
  1433  1430  1431      1
  1434  1430  1434      1
  1435  1430  1435      1
  1436  1431  1436      1
  1437  1436  1437      1
  1438  1436  1439      1
  1439  1436  1440      1
  1440  1437  1438      1
  1441  1437  1441      1
  1442  1437  1442      1
  1443  1438  1443      1
  1444  1443  1444      1
  1445  1443  1446      1
  1446  1443  1447      1
  1447  1444  1445      1
  1448  1444  1448      1
  1449  1444  1449      1
  1450  1445  1450      1
  1451  1450  1451      1
  1452  1450  1453      1
  1453  1450  1454      1
  1454  1451  1452      1
  1455  1451  1455      1
  1456  1451  1456      1
  1457  1452  1457      1
  1458  1457  1458      1
  1459  1457  1460      1
  1460  1457  1461      1
  1461  1458  1459      1
  1462  1458  1462      1
  1463  1458  1463      1
  1464  1459  1464      1
  1465  1464  1465      1
  1466  1464  1467      1
  1467  1464  1468      1
  1468  1465  1466      1
  1469  1465  1469      1
  1470  1465  1470      1
  1471  1466  1471      1
  1472  1471  1472      1
  1473  1471  1474      1
  1474  1471  1475      1
  1475  1472  1473      1
  1476  1472  1476      1
  1477  1472  1477      1
  1478  1473  1478      1
  1479  1478  1479      1
  1480  1478  1481      1
  1481  1478  1482      1
  1482  1479  1480      1
  1483  1479  1483      1
  1484  1479  1484      1
  1485  1480  1485      1
  1486  1485  1486      1
  1487  1485  1488      1
  1488  1485  1489      1
  1489  1486  1487      1
  1490  1486  1490      1
  1491  1486  1491      1
  1492  1487  1492      1
  1493  1492  1493      1
  1494  1492  1495      1
  1495  1492  1496      1
  1496  1493  1494      1
  1497  1493  1497      1
  1498  1493  1498      1
  1499  1494  1499      1
  1500  1499  1500      1
  1501  1499  1502      1
  1502  1499  1503      1
  1503  1500  1501      1
  1504  1500  1504      1
  1505  1500  1505      1
  1506  1501  1506      1
  1507  1506  1507      1
  1508  1506  1509      1
  1509  1506  1510      1
  1510  1507  1508      1
  1511  1507  1511      1
  1512  1507  1512      1
  1513  1508  1513      1
  1514  1513  1514      1
  1515  1513  1516      1
  1516  1513  1517      1
  1517  1514  1515      1
  1518  1514  1518      1
  1519  1514  1519      1
  1520  1515  1520      1
  1521  1520  1521      1
  1522  1520  1523      1
  1523  1520  1524      1
  1524  1521  1522      1
  1525  1521  1525      1
  1526  1521  1526      1
  1527  1522  1527      1
  1528  1527  1528      1
  1529  1527  1530      1
  1530  1527  1531      1
  1531  1528  1529      1
  1532  1528  1532      1
  1533  1528  1533      1
  1534  1529  1534      1
  1535  1534  1535      1
  1536  1534  1537      1
  1537  1534  1538      1
  1538  1535  1536      1
  1539  1535  1539      1
  1540  1535  1540      1
  1541  1536  1541      1
  1542  1541  1542      1
  1543  1541  1544      1
  1544  1541  1545      1
  1545  1542  1543      1
  1546  1542  1546      1
  1547  1542  1547      1
  1548  1543  1548      1
  1549  1548  1549      1
  1550  1548  1551      1
  1551  1548  1552      1
  1552  1549  1550      1
  1553  1549  1553      1
  1554  1549  1554      1
  1555  1550  1555      1
  1556  1555  1556      1
  1557  1555  1558      1
  1558  1555  1559      1
  1559  1556  1557      1
  1560  1556  1560      1
  1561  1556  1561      1
  1562  1557  1562      1
  1563  1562  1563      1
  1564  1562  1565      1
  1565  1562  1566      1
  1566  1563  1564      1
  1567  1563  1567      1
  1568  1563  1568      1
  1569  1564  1569      1
  1570  1569  1570      1
  1571  1569  1572      1
  1572  1569  1573      1
  1573  1570  1571      1
  1574  1570  1574      1
  1575  1570  1575      1
  1576  1571  1576      1
  1577  1576  1577      1
  1578  1576  1579      1
  1579  1576  1580      1
  1580  1577  1578      1
  1581  1577  1581      1
  1582  1577  1582      1
  1583  1578  1583      1
  1584  1583  1584      1
  1585  1583  1586      1
  1586  1583  1587      1
  1587  1584  1585      1
  1588  1584  1588      1
  1589  1584  1589      1
  1590  1585  1590      1
