###
### Created by PolyChef-cpp17 on Mon May 12 10:39:12 2025
###

@<TRIPOS>MOLECULE
NO_INFO
149 148 1 0 0
SMALL
USER_CHARGES


@<TRIPOS>ATOM
      1 C          93.8360  252.6282   19.8385 C.3       0      M_A    0.0000
      2 C          93.1767  252.2644   21.1655 C.3       0      M_A    0.0000
      3 O          93.9848  251.3353   21.8878 O.3       0      M_A    0.0000
      4 H          94.9272  252.6467   19.9312 H         0      M_A    0.0000
      5 H          93.5795  251.8656   19.0943 H         0      M_A    0.0000
      6 H          93.0515  253.1520   21.7981 H         0      M_A    0.0000
      7 H          92.1673  251.8649   20.9908 H         0      M_A    0.0000
      8 C          93.7889  250.0133   21.4288 C.3       1      M_A    0.0000
      9 C          94.2625  248.9770   22.4436 C.3       1      M_A    0.0000
     10 O          95.1430  248.0381   21.8263 O.3       1      M_A    0.0000
     11 H          94.3007  249.8889   20.4685 H         1      M_A    0.0000
     12 H          92.7161  249.8731   21.2532 H         1      M_A    0.0000
     13 H          94.8135  249.4540   23.2638 H         1      M_A    0.0000
     14 H          93.3996  248.4738   22.9030 H         1      M_A    0.0000
     15 C          95.3696  246.9178   22.6573 C.3       2      M_A    0.0000
     16 C          96.8430  246.5238   22.7009 C.3       2      M_A    0.0000
     17 O          96.9831  245.1041   22.6512 O.3       2      M_A    0.0000
     18 H          94.7477  246.0851   22.3119 H         2      M_A    0.0000
     19 H          95.0421  247.1780   23.6704 H         2      M_A    0.0000
     20 H          97.3856  246.9377   21.8417 H         2      M_A    0.0000
     21 H          97.3212  246.9417   23.5984 H         2      M_A    0.0000
     22 C          98.2697  244.6963   23.0699 C.3       3      M_A    0.0000
     23 C          99.0642  244.0514   21.9382 C.3       3      M_A    0.0000
     24 O          99.8382  242.9574   22.4303 O.3       3      M_A    0.0000
     25 H          98.1690  244.0143   23.9209 H         3      M_A    0.0000
     26 H          98.8077  245.5850   23.4193 H         3      M_A    0.0000
     27 H          98.3947  243.6578   21.1632 H         3      M_A    0.0000
     28 H          99.6998  244.8012   21.4454 H         3      M_A    0.0000
     29 C         100.8196  243.3906   23.3501 C.3       4      M_A    0.0000
     30 C         102.1710  242.7265   23.1031 C.3       4      M_A    0.0000
     31 O         102.2715  241.5075   23.8391 O.3       4      M_A    0.0000
     32 H         100.4648  243.1982   24.3682 H         4      M_A    0.0000
     33 H         100.9317  244.4751   23.2375 H         4      M_A    0.0000
     34 H         102.2995  242.4809   22.0415 H         4      M_A    0.0000
     35 H         102.9863  243.4177   23.3609 H         4      M_A    0.0000
     36 C         103.3169  240.6924   23.3495 C.3       5      M_A    0.0000
     37 C         102.8095  239.3379   22.8639 C.3       5      M_A    0.0000
     38 O         103.7106  238.2992   23.2472 O.3       5      M_A    0.0000
     39 H         104.0738  240.5736   24.1322 H         5      M_A    0.0000
     40 H         103.7878  241.2164   22.5099 H         5      M_A    0.0000
     41 H         101.8321  239.1039   23.3042 H         5      M_A    0.0000
     42 H         102.6609  239.3566   21.7747 H         5      M_A    0.0000
     43 C         103.4241  237.0909   22.5728 C.3       6      M_A    0.0000
     44 C         104.5406  236.0638   22.7357 C.3       6      M_A    0.0000
     45 O         105.4135  236.0901   21.6064 O.3       6      M_A    0.0000
     46 H         103.2373  237.3074   21.5156 H         6      M_A    0.0000
     47 H         102.5000  236.6801   22.9953 H         6      M_A    0.0000
     48 H         105.1466  236.2802   23.6243 H         6      M_A    0.0000
     49 H         104.1150  235.0616   22.8888 H         6      M_A    0.0000
     50 C         106.2173  234.9294   21.5469 C.3       7      M_A    0.0000
     51 C         107.4181  235.1094   20.6228 C.3       7      M_A    0.0000
     52 O         107.0928  234.7012   19.2941 O.3       7      M_A    0.0000
     53 H         105.5990  234.0823   21.2311 H         7      M_A    0.0000
     54 H         106.5781  234.7170   22.5598 H         7      M_A    0.0000
     55 H         107.7243  236.1620   20.5774 H         7      M_A    0.0000
     56 H         108.2830  234.5528   21.0117 H         7      M_A    0.0000
     57 C         108.2545  234.5119   18.5122 C.3       8      M_A    0.0000
     58 C         108.6055  235.7522   17.6958 C.3       8      M_A    0.0000
     59 O         109.0962  235.3812   16.4076 O.3       8      M_A    0.0000
     60 H         108.1114  233.6400   17.8649 H         8      M_A    0.0000
     61 H         109.0850  234.2877   19.1913 H         8      M_A    0.0000
     62 H         107.7216  236.3836   17.5412 H         8      M_A    0.0000
     63 H         109.3350  236.3701   18.2389 H         8      M_A    0.0000
     64 C         109.7588  236.4581   15.7766 C.3       9      M_A    0.0000
     65 C         110.7669  235.9811   14.7353 C.3       9      M_A    0.0000
     66 O         112.0783  235.9268   15.2965 O.3       9      M_A    0.0000
     67 H         110.2419  237.0771   16.5401 H         9      M_A    0.0000
     68 H         109.0013  237.0753   15.2801 H         9      M_A    0.0000
     69 H         110.5188  234.9725   14.3819 H         9      M_A    0.0000
     70 H         110.7370  236.6341   13.8512 H         9      M_A    0.0000
     71 C         113.0728  236.0000   14.2953 C.3      10      M_A    0.0000
     72 C         113.8346  234.6865   14.1455 C.3      10      M_A    0.0000
     73 O         115.2023  234.8560   14.5178 O.3      10      M_A    0.0000
     74 H         113.7525  236.8271   14.5265 H        10      M_A    0.0000
     75 H         112.5782  236.2333   13.3454 H        10      M_A    0.0000
     76 H         113.4110  233.9107   14.7954 H        10      M_A    0.0000
     77 H         113.7440  234.3104   13.1163 H        10      M_A    0.0000
     78 C         116.0601  234.0863   13.7000 C.3      11      M_A    0.0000
     79 C         116.6851  232.9205   14.4605 C.3      11      M_A    0.0000
     80 O         118.0969  233.0974   14.5755 O.3      11      M_A    0.0000
     81 H         116.8300  234.7395   13.2754 H        11      M_A    0.0000
     82 H         115.4665  233.6897   12.8684 H        11      M_A    0.0000
     83 H         116.2786  232.8522   15.4774 H        11      M_A    0.0000
     84 H         116.4402  231.9697   13.9656 H        11      M_A    0.0000
     85 C         118.7460  231.8835   14.8949 C.3      12      M_A    0.0000
     86 C         120.1630  232.1092   15.4136 C.3      12      M_A    0.0000
     87 O         121.0948  232.1279   14.3322 O.3      12      M_A    0.0000
     88 H         118.7468  231.2356   14.0118 H        12      M_A    0.0000
     89 H         118.1592  231.3822   15.6731 H        12      M_A    0.0000
     90 H         120.2424  233.0728   15.9322 H        12      M_A    0.0000
     91 H         120.4239  231.3383   16.1529 H        12      M_A    0.0000
     92 C         122.3719  231.6833   14.7422 C.3      13      M_A    0.0000
     93 C         123.3593  232.8364   14.8955 C.3      13      M_A    0.0000
     94 O         124.0296  233.0889   13.6607 O.3      13      M_A    0.0000
     95 H         122.7391  230.9411   14.0254 H        13      M_A    0.0000
     96 H         122.2595  231.1818   15.7102 H        13      M_A    0.0000
     97 H         122.8424  233.7603   15.1835 H        13      M_A    0.0000
     98 H         124.0747  232.6188   15.7016 H        13      M_A    0.0000
     99 C         123.6370  232.1697   12.6617 C.3      14      M_A    0.0000
    100 C         124.3237  232.4442   11.3271 C.3      14      M_A    0.0000
    101 O         123.3558  232.6067   10.2904 O.3      14      M_A    0.0000
    102 H         122.5470  232.1979   12.5587 H        14      M_A    0.0000
    103 H         123.9119  231.1647   13.0018 H        14      M_A    0.0000
    104 H         124.9148  233.3674   11.3723 H        14      M_A    0.0000
    105 H         125.0308  231.6361   11.0908 H        14      M_A    0.0000
    106 C         122.9068  231.3592    9.8019 C.3      15      M_A    0.0000
    107 C         122.3706  231.4598    8.3769 C.3      15      M_A    0.0000
    108 O         121.0386  231.9734    8.3784 O.3      15      M_A    0.0000
    109 H         122.1469  230.9612   10.4829 H        15      M_A    0.0000
    110 H         123.7567  230.6672    9.8128 H        15      M_A    0.0000
    111 H         122.9844  232.1404    7.7737 H        15      M_A    0.0000
    112 H         122.4204  230.4790    7.8825 H        15      M_A    0.0000
    113 C         120.6447  232.3933    7.0880 C.3      16      M_A    0.0000
    114 C         121.3547  233.6740    6.6593 C.3      16      M_A    0.0000
    115 O         120.5509  234.8156    6.9571 O.3      16      M_A    0.0000
    116 H         119.5569  232.5193    7.0697 H        16      M_A    0.0000
    117 H         120.8977  231.5942    6.3817 H        16      M_A    0.0000
    118 H         122.3056  233.7934    7.1934 H        16      M_A    0.0000
    119 H         121.6050  233.6293    5.5896 H        16      M_A    0.0000
    120 C         119.3769  234.8409    6.1710 C.3      17      M_A    0.0000
    121 C         118.9674  236.2621    5.7962 C.3      17      M_A    0.0000
    122 O         117.8238  236.6681    6.5480 O.3      17      M_A    0.0000
    123 H         118.5741  234.3275    6.7109 H        17      M_A    0.0000
    124 H         119.5737  234.2749    5.2532 H        17      M_A    0.0000
    125 H         119.7736  236.9735    6.0148 H        17      M_A    0.0000
    126 H         118.7800  236.3305    4.7150 H        17      M_A    0.0000
    127 C         117.1027  237.6858    5.8837 C.3      18      M_A    0.0000
    128 C         117.5771  239.0799    6.2831 C.3      18      M_A    0.0000
    129 O         116.4653  239.9619    6.4369 O.3      18      M_A    0.0000
    130 H         116.0343  237.5582    6.0878 H        18      M_A    0.0000
    131 H         117.2521  237.5558    4.8057 H        18      M_A    0.0000
    132 H         118.1105  239.0534    7.2416 H        18      M_A    0.0000
    133 H         118.2928  239.4641    5.5421 H        18      M_A    0.0000
    134 C         116.6462  241.1552    5.7020 C.3      19      M_A    0.0000
    135 C         116.6745  242.3860    6.6033 C.3      19      M_A    0.0000
    136 O         116.6057  243.5795    5.8231 O.3      19      M_A    0.0000
    137 H         115.8548  241.2347    4.9491 H        19      M_A    0.0000
    138 H         117.6024  241.0824    5.1712 H        19      M_A    0.0000
    139 H         115.8170  242.3911    7.2878 H        19      M_A    0.0000
    140 H         117.5740  242.3729    7.2355 H        19      M_A    0.0000
    141 C         117.4468  243.5058    4.6900 C.3      20      M_A    0.0000
    142 C         118.8361  242.9807    5.0394 C.3      20      M_A    0.0000
    143 O         119.4909  242.4823    3.8729 O.3      20      M_A    0.0000
    144 H         117.5040  244.4946    4.2225 H        20      M_A    0.0000
    145 H         116.9814  242.8245    3.9685 H        20      M_A    0.0000
    146 H         119.4649  243.7790    5.4533 H        20      M_A    0.0000
    147 H         118.7650  242.2085    5.8188 H        20      M_A    0.0000
    148 H         119.3441  241.5197    3.7629 H        20      M_A    0.0000
    149 H          93.4948  253.5924   19.4617 H         0      M_A    0.0000
@<TRIPOS>BOND
     1     1     2      1
     2     1     4      1
     3     1     5      1
     4     1   149      1
     5     2     3      1
     6     2     6      1
     7     2     7      1
     8     3     8      1
     9     8     9      1
    10     8    11      1
    11     8    12      1
    12     9    10      1
    13     9    13      1
    14     9    14      1
    15    10    15      1
    16    15    16      1
    17    15    18      1
    18    15    19      1
    19    16    17      1
    20    16    20      1
    21    16    21      1
    22    17    22      1
    23    22    23      1
    24    22    25      1
    25    22    26      1
    26    23    24      1
    27    23    27      1
    28    23    28      1
    29    24    29      1
    30    29    30      1
    31    29    32      1
    32    29    33      1
    33    30    31      1
    34    30    34      1
    35    30    35      1
    36    31    36      1
    37    36    37      1
    38    36    39      1
    39    36    40      1
    40    37    38      1
    41    37    41      1
    42    37    42      1
    43    38    43      1
    44    43    44      1
    45    43    46      1
    46    43    47      1
    47    44    45      1
    48    44    48      1
    49    44    49      1
    50    45    50      1
    51    50    51      1
    52    50    53      1
    53    50    54      1
    54    51    52      1
    55    51    55      1
    56    51    56      1
    57    52    57      1
    58    57    58      1
    59    57    60      1
    60    57    61      1
    61    58    59      1
    62    58    62      1
    63    58    63      1
    64    59    64      1
    65    64    65      1
    66    64    67      1
    67    64    68      1
    68    65    66      1
    69    65    69      1
    70    65    70      1
    71    66    71      1
    72    71    72      1
    73    71    74      1
    74    71    75      1
    75    72    73      1
    76    72    76      1
    77    72    77      1
    78    73    78      1
    79    78    79      1
    80    78    81      1
    81    78    82      1
    82    79    80      1
    83    79    83      1
    84    79    84      1
    85    80    85      1
    86    85    86      1
    87    85    88      1
    88    85    89      1
    89    86    87      1
    90    86    90      1
    91    86    91      1
    92    87    92      1
    93    92    93      1
    94    92    95      1
    95    92    96      1
    96    93    94      1
    97    93    97      1
    98    93    98      1
    99    94    99      1
   100    99   100      1
   101    99   102      1
   102    99   103      1
   103   100   101      1
   104   100   104      1
   105   100   105      1
   106   101   106      1
   107   106   107      1
   108   106   109      1
   109   106   110      1
   110   107   108      1
   111   107   111      1
   112   107   112      1
   113   108   113      1
   114   113   114      1
   115   113   116      1
   116   113   117      1
   117   114   115      1
   118   114   118      1
   119   114   119      1
   120   115   120      1
   121   120   121      1
   122   120   123      1
   123   120   124      1
   124   121   122      1
   125   121   125      1
   126   121   126      1
   127   122   127      1
   128   127   128      1
   129   127   130      1
   130   127   131      1
   131   128   129      1
   132   128   132      1
   133   128   133      1
   134   129   134      1
   135   134   135      1
   136   134   137      1
   137   134   138      1
   138   135   136      1
   139   135   139      1
   140   135   140      1
   141   136   141      1
   142   141   142      1
   143   141   144      1
   144   141   145      1
   145   142   143      1
   146   142   146      1
   147   142   147      1
   148   143   148      1
