###
### Created by PolyChef-cpp17 on Mon May 12 10:39:08 2025
###

@<TRIPOS>MOLECULE
NO_INFO
681 680 1 0 0
SMALL
USER_CHARGES


@<TRIPOS>ATOM
      1 C         267.9054  154.2468   50.7599 C.3       0      M_A    0.0000
      2 C         268.0354  155.7565   50.6011 C.3       0      M_A    0.0000
      3 O         266.7473  156.2991   50.3143 O.3       0      M_A    0.0000
      4 H         267.2067  154.0316   51.5763 H         0      M_A    0.0000
      5 H         267.4941  153.8054   49.8449 H         0      M_A    0.0000
      6 H         268.4128  156.1668   51.5483 H         0      M_A    0.0000
      7 H         268.7398  156.0153   49.7993 H         0      M_A    0.0000
      8 C         265.7297  155.4754   50.8421 C.3       1      M_A    0.0000
      9 C         264.4992  155.4138   49.9457 C.3       1      M_A    0.0000
     10 O         263.6579  154.3529   50.3958 O.3       1      M_A    0.0000
     11 H         265.4398  155.8732   51.8212 H         1      M_A    0.0000
     12 H         266.1333  154.4685   50.9982 H         1      M_A    0.0000
     13 H         263.9696  156.3733   50.0285 H         1      M_A    0.0000
     14 H         264.7769  155.2539   48.8953 H         1      M_A    0.0000
     15 C         262.3153  154.5911   50.0308 C.3       2      M_A    0.0000
     16 C         261.4424  153.3488   50.1576 C.3       2      M_A    0.0000
     17 O         260.0725  153.7464   50.1210 O.3       2      M_A    0.0000
     18 H         262.2986  154.9357   48.9907 H         2      M_A    0.0000
     19 H         261.9156  155.3982   50.6553 H         2      M_A    0.0000
     20 H         261.6642  152.6889   49.3071 H         2      M_A    0.0000
     21 H         261.6518  152.8059   51.0890 H         2      M_A    0.0000
     22 C         259.9626  155.1473   49.9872 C.3       3      M_A    0.0000
     23 C         258.7581  155.5655   49.1532 C.3       3      M_A    0.0000
     24 O         257.8181  156.2208   50.0034 O.3       3      M_A    0.0000
     25 H         260.8758  155.5189   49.5086 H         3      M_A    0.0000
     26 H         259.9041  155.5957   50.9855 H         3      M_A    0.0000
     27 H         259.1072  156.2590   48.3752 H         3      M_A    0.0000
     28 H         258.2871  154.6999   48.6682 H         3      M_A    0.0000
     29 C         256.6758  156.6156   49.2742 C.3       4      M_A    0.0000
     30 C         255.4196  156.6721   50.1346 C.3       4      M_A    0.0000
     31 O         254.4646  157.5177   49.4953 O.3       4      M_A    0.0000
     32 H         256.5215  155.8960   48.4623 H         4      M_A    0.0000
     33 H         256.8657  157.5945   48.8195 H         4      M_A    0.0000
     34 H         255.0196  155.6519   50.2198 H         4      M_A    0.0000
     35 H         255.6412  157.0491   51.1420 H         4      M_A    0.0000
     36 C         253.1785  156.9371   49.5340 C.3       5      M_A    0.0000
     37 C         252.1257  157.8782   50.1062 C.3       5      M_A    0.0000
     38 O         250.8368  157.4308   49.6888 O.3       5      M_A    0.0000
     39 H         253.2278  156.0353   50.1546 H         5      M_A    0.0000
     40 H         252.8977  156.6286   48.5206 H         5      M_A    0.0000
     41 H         252.1980  157.8432   51.2024 H         5      M_A    0.0000
     42 H         252.2907  158.9122   49.7749 H         5      M_A    0.0000
     43 C         249.8785  157.6548   50.7008 C.3       6      M_A    0.0000
     44 C         248.7164  158.5198   50.2289 C.3       6      M_A    0.0000
     45 O         247.9689  158.9431   51.3682 O.3       6      M_A    0.0000
     46 H         250.3766  158.1519   51.5409 H         6      M_A    0.0000
     47 H         249.5077  156.6877   51.0588 H         6      M_A    0.0000
     48 H         249.1324  159.3934   49.7075 H         6      M_A    0.0000
     49 H         248.0657  157.9717   49.5344 H         6      M_A    0.0000
     50 C         247.2568  160.1288   51.0859 C.3       7      M_A    0.0000
     51 C         246.5184  160.0683   49.7545 C.3       7      M_A    0.0000
     52 O         245.8117  161.2935   49.5672 O.3       7      M_A    0.0000
     53 H         247.9705  160.9601   51.0619 H         7      M_A    0.0000
     54 H         246.5497  160.3207   51.9009 H         7      M_A    0.0000
     55 H         247.2641  159.9397   48.9575 H         7      M_A    0.0000
     56 H         245.8192  159.2220   49.7229 H         7      M_A    0.0000
     57 C         246.3190  162.2979   50.4195 C.3       8      M_A    0.0000
     58 C         245.8942  163.6984   49.9956 C.3       8      M_A    0.0000
     59 O         245.5945  164.4592   51.1649 O.3       8      M_A    0.0000
     60 H         247.4130  162.2369   50.4084 H         8      M_A    0.0000
     61 H         245.9849  162.0964   51.4437 H         8      M_A    0.0000
     62 H         246.7322  164.1585   49.4534 H         8      M_A    0.0000
     63 H         245.0195  163.6677   49.3323 H         8      M_A    0.0000
     64 C         245.7073  165.8418   50.9035 C.3       9      M_A    0.0000
     65 C         244.7374  166.6774   51.7296 C.3       9      M_A    0.0000
     66 O         245.3440  166.9731   52.9867 O.3       9      M_A    0.0000
     67 H         245.5057  166.0073   49.8392 H         9      M_A    0.0000
     68 H         246.7384  166.1571   51.0998 H         9      M_A    0.0000
     69 H         244.5381  167.6086   51.1810 H         9      M_A    0.0000
     70 H         243.7869  166.1497   51.8854 H         9      M_A    0.0000
     71 C         245.6017  165.7875   53.7081 C.3      10      M_A    0.0000
     72 C         244.8607  165.7360   55.0384 C.3      10      M_A    0.0000
     73 O         244.5173  164.3797   55.3187 O.3      10      M_A    0.0000
     74 H         246.6796  165.7278   53.8963 H        10      M_A    0.0000
     75 H         245.3240  164.9274   53.0883 H        10      M_A    0.0000
     76 H         245.5332  166.1213   55.8176 H        10      M_A    0.0000
     77 H         243.9548  166.3565   55.0162 H        10      M_A    0.0000
     78 C         243.6214  164.3061   56.4071 C.3      11      M_A    0.0000
     79 C         244.1124  163.3778   57.5110 C.3      11      M_A    0.0000
     80 O         243.2609  163.5264   58.6462 O.3      11      M_A    0.0000
     81 H         242.6579  163.9406   56.0341 H        11      M_A    0.0000
     82 H         243.4630  165.3148   56.8053 H        11      M_A    0.0000
     83 H         244.0607  162.3461   57.1358 H        11      M_A    0.0000
     84 H         245.1514  163.6004   57.7883 H        11      M_A    0.0000
     85 C         241.9442  163.8399   58.2452 C.3      12      M_A    0.0000
     86 C         240.8891  163.1413   59.0939 C.3      12      M_A    0.0000
     87 O         240.4549  164.0389   60.1144 O.3      12      M_A    0.0000
     88 H         241.8222  163.5348   57.1997 H        12      M_A    0.0000
     89 H         241.8078  164.9262   58.2928 H        12      M_A    0.0000
     90 H         240.0451  162.8800   58.4401 H        12      M_A    0.0000
     91 H         241.2835  162.2210   59.5450 H        12      M_A    0.0000
     92 C         241.0412  163.7061   61.3547 C.3      13      M_A    0.0000
     93 C         240.1469  164.0508   62.5390 C.3      13      M_A    0.0000
     94 O         240.8367  163.7226   63.7441 O.3      13      M_A    0.0000
     95 H         241.9847  164.2560   61.4466 H        13      M_A    0.0000
     96 H         241.2779  162.6361   61.3596 H        13      M_A    0.0000
     97 H         239.9407  165.1299   62.5069 H        13      M_A    0.0000
     98 H         239.1932  163.5081   62.4916 H        13      M_A    0.0000
     99 C         239.9465  163.7023   64.8394 C.3      14      M_A    0.0000
    100 C         240.6637  163.7807   66.1814 C.3      14      M_A    0.0000
    101 O         240.3692  165.0398   66.7847 O.3      14      M_A    0.0000
    102 H         239.3698  162.7714   64.7956 H        14      M_A    0.0000
    103 H         239.2415  164.5354   64.7393 H        14      M_A    0.0000
    104 H         240.2896  162.9645   66.8152 H        14      M_A    0.0000
    105 H         241.7493  163.6654   66.0623 H        14      M_A    0.0000
    106 C         240.6073  164.9950   68.1754 C.3      15      M_A    0.0000
    107 C         242.0696  164.7326   68.5133 C.3      15      M_A    0.0000
    108 O         242.7175  165.9828   68.7435 O.3      15      M_A    0.0000
    109 H         239.9920  164.1955   68.6032 H        15      M_A    0.0000
    110 H         240.2810  165.9412   68.6219 H        15      M_A    0.0000
    111 H         242.1033  164.1192   69.4246 H        15      M_A    0.0000
    112 H         242.5761  164.1897   67.7040 H        15      M_A    0.0000
    113 C         244.0158  165.7845   69.2610 C.3      16      M_A    0.0000
    114 C         244.8113  167.0798   69.3652 C.3      16      M_A    0.0000
    115 O         245.2791  167.2230   70.7055 O.3      16      M_A    0.0000
    116 H         244.5466  165.0908   68.5993 H        16      M_A    0.0000
    117 H         243.9368  165.3103   70.2459 H        16      M_A    0.0000
    118 H         245.6643  167.0115   68.6755 H        16      M_A    0.0000
    119 H         244.2002  167.9483   69.0851 H        16      M_A    0.0000
    120 C         246.3519  168.1385   70.7649 C.3      17      M_A    0.0000
    121 C         246.0562  169.3333   71.6629 C.3      17      M_A    0.0000
    122 O         247.0354  169.3798   72.6997 O.3      17      M_A    0.0000
    123 H         246.5545  168.4958   69.7489 H        17      M_A    0.0000
    124 H         247.2471  167.6139   71.1178 H        17      M_A    0.0000
    125 H         246.1162  170.2431   71.0493 H        17      M_A    0.0000
    126 H         245.0501  169.2674   72.0983 H        17      M_A    0.0000
    127 C         246.5505  170.1005   73.8125 C.3      18      M_A    0.0000
    128 C         247.6139  170.9886   74.4464 C.3      18      M_A    0.0000
    129 O         247.0192  172.2384   74.7930 O.3      18      M_A    0.0000
    130 H         246.1939  169.3810   74.5582 H        18      M_A    0.0000
    131 H         245.6929  170.7056   73.4971 H        18      M_A    0.0000
    132 H         247.9826  170.4850   75.3510 H        18      M_A    0.0000
    133 H         248.4590  171.1505   73.7638 H        18      M_A    0.0000
    134 C         247.8500  172.9583   75.6785 C.3      19      M_A    0.0000
    135 C         248.0324  174.4126   75.2623 C.3      19      M_A    0.0000
    136 O         247.6945  175.2504   76.3667 O.3      19      M_A    0.0000
    137 H         248.8297  172.4679   75.7048 H        19      M_A    0.0000
    138 H         247.4242  172.9052   76.6869 H        19      M_A    0.0000
    139 H         249.0870  174.5586   74.9894 H        19      M_A    0.0000
    140 H         247.4062  174.6622   74.3953 H        19      M_A    0.0000
    141 C         246.2947  175.3098   76.5385 C.3      20      M_A    0.0000
    142 C         245.7500  176.7293   76.4397 C.3      20      M_A    0.0000
    143 O         245.4675  177.0167   75.0709 O.3      20      M_A    0.0000
    144 H         246.0527  174.9016   77.5263 H        20      M_A    0.0000
    145 H         245.8174  174.6696   75.7879 H        20      M_A    0.0000
    146 H         244.8259  176.7811   77.0323 H        20      M_A    0.0000
    147 H         246.4655  177.4611   76.8378 H        20      M_A    0.0000
    148 C         246.1358  178.1897   74.6587 C.3      21      M_A    0.0000
    149 C         247.5444  178.2952   75.2297 C.3      21      M_A    0.0000
    150 O         248.2039  179.4034   74.6190 O.3      21      M_A    0.0000
    151 H         245.5492  179.0536   74.9911 H        21      M_A    0.0000
    152 H         246.1702  178.2124   73.5635 H        21      M_A    0.0000
    153 H         247.4608  178.4592   76.3133 H        21      M_A    0.0000
    154 H         248.1168  177.3743   75.0557 H        21      M_A    0.0000
    155 C         249.1920  179.9316   75.4778 C.3      22      M_A    0.0000
    156 C         249.8729  181.1665   74.9010 C.3      22      M_A    0.0000
    157 O         250.5049  181.8788   75.9636 O.3      22      M_A    0.0000
    158 H         249.9458  179.1555   75.6516 H        22      M_A    0.0000
    159 H         248.7320  180.1709   76.4433 H        22      M_A    0.0000
    160 H         250.6260  180.8314   74.1741 H        22      M_A    0.0000
    161 H         249.1527  181.8176   74.3877 H        22      M_A    0.0000
    162 C         251.7140  182.4606   75.5250 C.3      23      M_A    0.0000
    163 C         251.6925  183.9825   75.5926 C.3      23      M_A    0.0000
    164 O         252.0797  184.3878   76.9047 O.3      23      M_A    0.0000
    165 H         251.8875  182.1507   74.4883 H        23      M_A    0.0000
    166 H         252.5376  182.0677   76.1320 H        23      M_A    0.0000
    167 H         252.4109  184.3660   74.8544 H        23      M_A    0.0000
    168 H         250.6967  184.3797   75.3546 H        23      M_A    0.0000
    169 C         251.0298  184.1735   77.8237 C.3      24      M_A    0.0000
    170 C         250.5579  185.4609   78.4879 C.3      24      M_A    0.0000
    171 O         249.2300  185.7424   78.0482 O.3      24      M_A    0.0000
    172 H         251.3857  183.4820   78.5959 H        24      M_A    0.0000
    173 H         250.1955  183.6899   77.3030 H        24      M_A    0.0000
    174 H         250.5677  185.3058   79.5759 H        24      M_A    0.0000
    175 H         251.2207  186.3024   78.2457 H        24      M_A    0.0000
    176 C         248.5285  186.4856   79.0220 C.3      25      M_A    0.0000
    177 C         249.0979  187.8855   79.2159 C.3      25      M_A    0.0000
    178 O         248.0222  188.8228   79.2036 O.3      25      M_A    0.0000
    179 H         248.5822  185.9426   79.9723 H        25      M_A    0.0000
    180 H         247.4734  186.5446   78.7315 H        25      M_A    0.0000
    181 H         249.6084  187.9133   80.1888 H        25      M_A    0.0000
    182 H         249.8232  188.1349   78.4299 H        25      M_A    0.0000
    183 C         247.5504  189.0243   77.8884 C.3      26      M_A    0.0000
    184 C         246.0954  189.4745   77.8483 C.3      26      M_A    0.0000
    185 O         246.0225  190.8275   78.2954 O.3      26      M_A    0.0000
    186 H         247.6483  188.0803   77.3405 H        26      M_A    0.0000
    187 H         248.1881  189.7647   77.3922 H        26      M_A    0.0000
    188 H         245.7460  189.4036   76.8087 H        26      M_A    0.0000
    189 H         245.4614  188.8356   78.4776 H        26      M_A    0.0000
    190 C         244.9535  191.5036   77.6687 C.3      27      M_A    0.0000
    191 C         243.6361  191.3414   78.4166 C.3      27      M_A    0.0000
    192 O         243.1027  192.6362   78.6900 O.3      27      M_A    0.0000
    193 H         244.8414  191.1027   76.6549 H        27      M_A    0.0000
    194 H         245.2086  192.5658   77.5801 H        27      M_A    0.0000
    195 H         242.9457  190.7798   77.7717 H        27      M_A    0.0000
    196 H         243.7738  190.7856   79.3538 H        27      M_A    0.0000
    197 C         242.1717  192.5792   79.7496 C.3      28      M_A    0.0000
    198 C         240.8929  193.3518   79.4507 C.3      28      M_A    0.0000
    199 O         239.7742  192.5234   79.7638 O.3      28      M_A    0.0000
    200 H         242.6439  193.0008   80.6441 H        28      M_A    0.0000
    201 H         241.9376  191.5295   79.9603 H        28      M_A    0.0000
    202 H         240.8828  194.2505   80.0832 H        28      M_A    0.0000
    203 H         240.8491  193.6611   78.3979 H        28      M_A    0.0000
    204 C         238.6237  193.3064   80.0001 C.3      29      M_A    0.0000
    205 C         237.9191  193.7192   78.7138 C.3      29      M_A    0.0000
    206 O         236.5230  193.8491   78.9781 O.3      29      M_A    0.0000
    207 H         238.9276  194.2065   80.5464 H        29      M_A    0.0000
    208 H         237.9369  192.7434   80.6422 H        29      M_A    0.0000
    209 H         238.3321  194.6866   78.3951 H        29      M_A    0.0000
    210 H         238.0839  192.9849   77.9139 H        29      M_A    0.0000
    211 C         235.9643  194.8932   78.2099 C.3      30      M_A    0.0000
    212 C         234.4432  194.8291   78.1488 C.3      30      M_A    0.0000
    213 O         233.9084  195.8853   78.9451 O.3      30      M_A    0.0000
    214 H         236.3666  194.8240   77.1929 H        30      M_A    0.0000
    215 H         236.2847  195.8535   78.6299 H        30      M_A    0.0000
    216 H         234.1392  194.9588   77.1006 H        30      M_A    0.0000
    217 H         234.0688  193.8609   78.5072 H        30      M_A    0.0000
    218 C         232.6510  196.2953   78.4515 C.3      31      M_A    0.0000
    219 C         231.5459  196.1862   79.4946 C.3      31      M_A    0.0000
    220 O         230.8468  197.4287   79.5523 O.3      31      M_A    0.0000
    221 H         232.3968  195.6633   77.5931 H        31      M_A    0.0000
    222 H         232.7302  197.3278   78.0926 H        31      M_A    0.0000
    223 H         230.8614  195.3849   79.1824 H        31      M_A    0.0000
    224 H         231.9525  195.9370   80.4838 H        31      M_A    0.0000
    225 C         229.9810  197.4634   80.6666 C.3      32      M_A    0.0000
    226 C         228.5288  197.7073   80.2755 C.3      32      M_A    0.0000
    227 O         227.7625  196.5537   80.6188 O.3      32      M_A    0.0000
    228 H         230.3121  198.2676   81.3334 H        32      M_A    0.0000
    229 H         230.0703  196.5186   81.2149 H        32      M_A    0.0000
    230 H         228.1668  198.5792   80.8382 H        32      M_A    0.0000
    231 H         228.4334  197.9164   79.2016 H        32      M_A    0.0000
    232 C         226.4517  196.9187   80.9946 C.3      33      M_A    0.0000
    233 C         225.5192  197.0738   79.7997 C.3      33      M_A    0.0000
    234 O         224.2198  196.6161   80.1708 O.3      33      M_A    0.0000
    235 H         226.5023  197.8707   81.5351 H        33      M_A    0.0000
    236 H         226.0575  196.1645   81.6852 H        33      M_A    0.0000
    237 H         225.4800  198.1398   79.5350 H        33      M_A    0.0000
    238 H         225.8837  196.5082   78.9316 H        33      M_A    0.0000
    239 C         223.2198  197.3763   79.5269 C.3      34      M_A    0.0000
    240 C         222.1485  196.5089   78.8777 C.3      34      M_A    0.0000
    241 O         220.8663  197.0358   79.2157 O.3      34      M_A    0.0000
    242 H         223.6988  197.9905   78.7561 H        34      M_A    0.0000
    243 H         222.7642  198.0547   80.2573 H        34      M_A    0.0000
    244 H         222.2943  196.5463   77.7890 H        34      M_A    0.0000
    245 H         222.2251  195.4643   79.2080 H        34      M_A    0.0000
    246 C         219.9653  196.8857   78.1394 C.3      35      M_A    0.0000
    247 C         218.7286  196.0794   78.5161 C.3      35      M_A    0.0000
    248 O         217.6260  196.9734   78.6602 O.3      35      M_A    0.0000
    249 H         220.4890  196.3770   77.3221 H        35      M_A    0.0000
    250 H         219.6729  197.8789   77.7801 H        35      M_A    0.0000
    251 H         218.5286  195.3647   77.7055 H        35      M_A    0.0000
    252 H         218.8841  195.5204   79.4486 H        35      M_A    0.0000
    253 C         216.4298  196.3657   78.2215 C.3      36      M_A    0.0000
    254 C         215.6616  195.6950   79.3535 C.3      36      M_A    0.0000
    255 O         214.5602  196.5269   79.7149 O.3      36      M_A    0.0000
    256 H         216.6842  195.6132   77.4665 H        36      M_A    0.0000
    257 H         215.8032  197.1237   77.7379 H        36      M_A    0.0000
    258 H         215.2952  194.7253   78.9882 H        36      M_A    0.0000
    259 H         216.3052  195.5224   80.2265 H        36      M_A    0.0000
    260 C         213.5669  195.7783   80.3824 C.3      37      M_A    0.0000
    261 C         212.9761  196.5181   81.5761 C.3      37      M_A    0.0000
    262 O         211.6099  196.1333   81.7225 O.3      37      M_A    0.0000
    263 H         214.0182  194.8419   80.7293 H        37      M_A    0.0000
    264 H         212.7759  195.5220   79.6684 H        37      M_A    0.0000
    265 H         213.5451  196.2292   82.4709 H        37      M_A    0.0000
    266 H         213.0487  197.6065   81.4483 H        37      M_A    0.0000
    267 C         211.4997  194.7357   81.8871 C.3      38      M_A    0.0000
    268 C         210.5408  194.3493   83.0064 C.3      38      M_A    0.0000
    269 O         209.3159  193.9037   82.4260 O.3      38      M_A    0.0000
    270 H         212.4949  194.3376   82.1151 H        38      M_A    0.0000
    271 H         211.1726  194.2914   80.9402 H        38      M_A    0.0000
    272 H         211.0012  193.5345   83.5826 H        38      M_A    0.0000
    273 H         210.3517  195.1950   83.6810 H        38      M_A    0.0000
    274 C         208.2104  194.4076   83.1446 C.3      39      M_A    0.0000
    275 C         206.9153  193.6724   82.8225 C.3      39      M_A    0.0000
    276 O         206.0724  193.7047   83.9733 O.3      39      M_A    0.0000
    277 H         208.0922  195.4677   82.8934 H        39      M_A    0.0000
    278 H         208.4245  194.3417   84.2174 H        39      M_A    0.0000
    279 H         206.4279  194.1926   81.9859 H        39      M_A    0.0000
    280 H         207.1084  192.6326   82.5266 H        39      M_A    0.0000
    281 C         204.7147  193.6015   83.6009 C.3      40      M_A    0.0000
    282 C         204.3547  192.2204   83.0678 C.3      40      M_A    0.0000
    283 O         203.0804  191.8464   83.5896 O.3      40      M_A    0.0000
    284 H         204.5143  194.3483   82.8244 H        40      M_A    0.0000
    285 H         204.0895  193.8461   84.4671 H        40      M_A    0.0000
    286 H         204.3081  192.2805   81.9714 H        40      M_A    0.0000
    287 H         205.1098  191.4739   83.3481 H        40      M_A    0.0000
    288 C         202.8143  190.4847   83.3293 C.3      41      M_A    0.0000
    289 C         201.4680  190.0329   83.8811 C.3      41      M_A    0.0000
    290 O         201.0578  188.8585   83.1821 O.3      41      M_A    0.0000
    291 H         203.6088  189.8860   83.7890 H        41      M_A    0.0000
    292 H         202.8542  190.3158   82.2472 H        41      M_A    0.0000
    293 H         201.5963  189.8080   84.9492 H        41      M_A    0.0000
    294 H         200.7080  190.8185   83.7751 H        41      M_A    0.0000
    295 C         199.6497  188.7766   83.1268 C.3      42      M_A    0.0000
    296 C         199.1523  187.3558   82.8914 C.3      42      M_A    0.0000
    297 O         197.8095  187.2569   83.3634 O.3      42      M_A    0.0000
    298 H         199.3006  189.4180   82.3097 H        42      M_A    0.0000
    299 H         199.2342  189.1716   84.0608 H        42      M_A    0.0000
    300 H         199.1855  187.1585   81.8106 H        42      M_A    0.0000
    301 H         199.7864  186.6198   83.4037 H        42      M_A    0.0000
    302 C         197.0634  186.3645   82.5635 C.3      43      M_A    0.0000
    303 C         196.7918  185.0371   83.2604 C.3      43      M_A    0.0000
    304 O         195.5197  184.5496   82.8363 O.3      43      M_A    0.0000
    305 H         197.6266  186.1766   81.6425 H        43      M_A    0.0000
    306 H         196.1184  186.8439   82.2838 H        43      M_A    0.0000
    307 H         197.5811  184.3310   82.9665 H        43      M_A    0.0000
    308 H         196.8070  185.1482   84.3529 H        43      M_A    0.0000
    309 C         194.8146  183.9846   83.9208 C.3      44      M_A    0.0000
    310 C         193.3271  183.8214   83.6339 C.3      44      M_A    0.0000
    311 O         192.7223  183.1360   84.7295 O.3      44      M_A    0.0000
    312 H         194.9416  184.6389   84.7907 H        44      M_A    0.0000
    313 H         195.2599  183.0139   84.1667 H        44      M_A    0.0000
    314 H         192.8887  184.8239   83.5304 H        44      M_A    0.0000
    315 H         193.1580  183.2648   82.7023 H        44      M_A    0.0000
    316 C         192.5681  184.0000   85.8351 C.3      45      M_A    0.0000
    317 C         191.1091  184.2001   86.2259 C.3      45      M_A    0.0000
    318 O         190.7867  183.2869   87.2738 O.3      45      M_A    0.0000
    319 H         193.0055  184.9707   85.5756 H        45      M_A    0.0000
    320 H         193.1335  183.5962   86.6827 H        45      M_A    0.0000
    321 H         190.9904  185.2339   86.5796 H        45      M_A    0.0000
    322 H         190.4401  184.0415   85.3695 H        45      M_A    0.0000
    323 C         189.7937  183.8273   88.1191 C.3      46      M_A    0.0000
    324 C         188.3966  183.7356   87.5184 C.3      46      M_A    0.0000
    325 O         187.5475  183.0495   88.4371 O.3      46      M_A    0.0000
    326 H         190.0358  184.8801   88.3033 H        46      M_A    0.0000
    327 H         189.8251  183.3053   89.0823 H        46      M_A    0.0000
    328 H         188.0273  184.7584   87.3584 H        46      M_A    0.0000
    329 H         188.4094  183.2106   86.5538 H        46      M_A    0.0000
    330 C         186.1896  183.3058   88.1491 C.3      47      M_A    0.0000
    331 C         185.4634  183.9901   89.3006 C.3      47      M_A    0.0000
    332 O         184.2337  184.5247   88.8129 O.3      47      M_A    0.0000
    333 H         185.6984  182.3502   87.9335 H        47      M_A    0.0000
    334 H         186.1287  183.9226   87.2453 H        47      M_A    0.0000
    335 H         185.2636  183.2346   90.0735 H        47      M_A    0.0000
    336 H         186.0739  184.7905   89.7395 H        47      M_A    0.0000
    337 C         184.4630  185.6926   88.0538 C.3      48      M_A    0.0000
    338 C         183.1760  186.3091   87.5203 C.3      48      M_A    0.0000
    339 O         183.0953  187.6608   87.9701 O.3      48      M_A    0.0000
    340 H         185.1115  185.4313   87.2099 H        48      M_A    0.0000
    341 H         185.0004  186.4191   88.6740 H        48      M_A    0.0000
    342 H         183.2150  186.2810   86.4223 H        48      M_A    0.0000
    343 H         182.2940  185.7475   87.8562 H        48      M_A    0.0000
    344 C         182.0281  188.3346   87.3380 C.3      49      M_A    0.0000
    345 C         181.3937  189.3962   88.2279 C.3      49      M_A    0.0000
    346 O         180.8789  190.4386   87.4008 O.3      49      M_A    0.0000
    347 H         181.2676  187.5939   87.0664 H        49      M_A    0.0000
    348 H         182.3952  188.7898   86.4110 H        49      M_A    0.0000
    349 H         180.5753  188.9243   88.7896 H        49      M_A    0.0000
    350 H         182.1204  189.8065   88.9417 H        49      M_A    0.0000
    351 C         180.4948  191.5510   88.1803 C.3      50      M_A    0.0000
    352 C         180.1070  192.7567   87.3334 C.3      50      M_A    0.0000
    353 O         178.6900  192.7618   87.1662 O.3      50      M_A    0.0000
    354 H         181.3364  191.8236   88.8271 H        50      M_A    0.0000
    355 H         179.6591  191.2598   88.8268 H        50      M_A    0.0000
    356 H         180.4250  193.6635   87.8668 H        50      M_A    0.0000
    357 H         180.6015  192.7328   86.3530 H        50      M_A    0.0000
    358 C         178.3153  193.6156   86.1064 C.3      51      M_A    0.0000
    359 C         179.0756  193.3231   84.8189 C.3      51      M_A    0.0000
    360 O         178.3834  193.9324   83.7301 O.3      51      M_A    0.0000
    361 H         178.5134  194.6491   86.4121 H        51      M_A    0.0000
    362 H         177.2367  193.5194   85.9375 H        51      M_A    0.0000
    363 H         180.0819  193.7551   84.9124 H        51      M_A    0.0000
    364 H         179.1706  192.2426   84.6469 H        51      M_A    0.0000
    365 C         178.0807  195.2799   84.0222 C.3      52      M_A    0.0000
    366 C         178.5896  196.2413   82.9555 C.3      52      M_A    0.0000
    367 O         177.5941  196.3683   81.9413 O.3      52      M_A    0.0000
    368 H         178.5420  195.5345   84.9831 H        52      M_A    0.0000
    369 H         176.9957  195.3833   84.1363 H        52      M_A    0.0000
    370 H         178.7659  197.2159   83.4321 H        52      M_A    0.0000
    371 H         179.5320  195.8885   82.5155 H        52      M_A    0.0000
    372 C         177.5680  195.2201   81.1206 C.3      53      M_A    0.0000
    373 C         177.4206  195.5575   79.6421 C.3      53      M_A    0.0000
    374 O         178.2256  194.6554   78.8845 O.3      53      M_A    0.0000
    375 H         176.7228  194.5955   81.4312 H        53      M_A    0.0000
    376 H         178.4857  194.6444   81.2863 H        53      M_A    0.0000
    377 H         176.3629  195.4360   79.3693 H        53      M_A    0.0000
    378 H         177.7210  196.5936   79.4362 H        53      M_A    0.0000
    379 C         178.2426  195.0249   77.5222 C.3      54      M_A    0.0000
    380 C         179.1376  194.1244   76.6800 C.3      54      M_A    0.0000
    381 O         178.4099  193.7060   75.5262 O.3      54      M_A    0.0000
    382 H         178.6047  196.0568   77.4512 H        54      M_A    0.0000
    383 H         177.2171  195.0048   77.1361 H        54      M_A    0.0000
    384 H         180.0184  194.7078   76.3767 H        54      M_A    0.0000
    385 H         179.4744  193.2485   77.2505 H        54      M_A    0.0000
    386 C         177.5858  192.6007   75.8292 C.3      55      M_A    0.0000
    387 C         176.2601  192.6326   75.0789 C.3      55      M_A    0.0000
    388 O         176.1622  191.4593   74.2729 O.3      55      M_A    0.0000
    389 H         177.3873  192.6061   76.9070 H        55      M_A    0.0000
    390 H         178.1293  191.6782   75.5956 H        55      M_A    0.0000
    391 H         175.4495  192.6467   75.8210 H        55      M_A    0.0000
    392 H         176.1778  193.5291   74.4499 H        55      M_A    0.0000
    393 C         174.8131  191.1681   73.9768 C.3      56      M_A    0.0000
    394 C         174.2295  192.0970   72.9195 C.3      56      M_A    0.0000
    395 O         173.4802  191.3172   71.9887 O.3      56      M_A    0.0000
    396 H         174.2305  191.2656   74.8999 H        56      M_A    0.0000
    397 H         174.7394  190.1261   73.6454 H        56      M_A    0.0000
    398 H         173.5686  192.8151   73.4249 H        56      M_A    0.0000
    399 H         175.0187  192.6526   72.3954 H        56      M_A    0.0000
    400 C         172.3029  191.9944   71.6036 C.3      57      M_A    0.0000
    401 C         172.0533  191.9320   70.1019 C.3      57      M_A    0.0000
    402 O         170.7211  192.3712   69.8409 O.3      57      M_A    0.0000
    403 H         172.3953  193.0431   71.9079 H        57      M_A    0.0000
    404 H         171.4529  191.5644   72.1454 H        57      M_A    0.0000
    405 H         172.7723  192.6017   69.6095 H        57      M_A    0.0000
    406 H         172.1967  190.9145   69.7144 H        57      M_A    0.0000
    407 C         170.5499  192.6594   68.4697 C.3      58      M_A    0.0000
    408 C         169.0846  192.8023   68.0774 C.3      58      M_A    0.0000
    409 O         168.7203  194.1792   68.1625 O.3      58      M_A    0.0000
    410 H         170.9980  191.8449   67.8894 H        58      M_A    0.0000
    411 H         171.0960  193.5787   68.2293 H        58      M_A    0.0000
    412 H         168.9733  192.4480   67.0429 H        58      M_A    0.0000
    413 H         168.4357  192.2005   68.7278 H        58      M_A    0.0000
    414 C         167.6181  194.4568   67.3254 C.3      59      M_A    0.0000
    415 C         166.3147  193.8735   67.8569 C.3      59      M_A    0.0000
    416 O         165.2549  194.7845   67.5695 O.3      59      M_A    0.0000
    417 H         167.8231  194.0322   66.3362 H        59      M_A    0.0000
    418 H         167.5255  195.5425   67.2089 H        59      M_A    0.0000
    419 H         166.1364  192.9173   67.3451 H        59      M_A    0.0000
    420 H         166.3701  193.6897   68.9382 H        59      M_A    0.0000
    421 C         164.0770  194.4119   68.2524 C.3      60      M_A    0.0000
    422 C         162.8490  195.1691   67.7626 C.3      60      M_A    0.0000
    423 O         162.2303  194.4137   66.7223 O.3      60      M_A    0.0000
    424 H         164.2206  194.6147   69.3197 H        60      M_A    0.0000
    425 H         163.9257  193.3327   68.1361 H        60      M_A    0.0000
    426 H         162.1568  195.2785   68.6093 H        60      M_A    0.0000
    427 H         163.1159  196.1687   67.3941 H        60      M_A    0.0000
    428 C         162.1745  195.1624   65.5269 C.3      61      M_A    0.0000
    429 C         163.0616  194.5861   64.4304 C.3      61      M_A    0.0000
    430 O         162.4705  194.8752   63.1644 O.3      61      M_A    0.0000
    431 H         162.4978  196.1860   65.7479 H        61      M_A    0.0000
    432 H         161.1343  195.2085   65.1851 H        61      M_A    0.0000
    433 H         164.0474  195.0668   64.5026 H        61      M_A    0.0000
    434 H         163.1889  193.5016   64.5473 H        61      M_A    0.0000
    435 C         161.4487  193.9478   62.8669 C.3      62      M_A    0.0000
    436 C         161.4299  193.5450   61.3976 C.3      62      M_A    0.0000
    437 O         161.5468  192.1257   61.3108 O.3      62      M_A    0.0000
    438 H         160.4861  194.4034   63.1255 H        62      M_A    0.0000
    439 H         161.5782  193.0621   63.4991 H        62      M_A    0.0000
    440 H         160.4717  193.8694   60.9682 H        62      M_A    0.0000
    441 H         162.2461  194.0245   60.8408 H        62      M_A    0.0000
    442 C         160.7858  191.6270   60.2314 C.3      63      M_A    0.0000
    443 C         161.5269  190.5627   59.4318 C.3      63      M_A    0.0000
    444 O         160.5686  189.7218   58.7911 O.3      63      M_A    0.0000
    445 H         160.5392  192.4650   59.5696 H        63      M_A    0.0000
    446 H         159.8446  191.2206   60.6186 H        63      M_A    0.0000
    447 H         162.1432  191.0717   58.6774 H        63      M_A    0.0000
    448 H         162.1830  189.9624   60.0762 H        63      M_A    0.0000
    449 C         159.2892  190.3181   58.8099 C.3      64      M_A    0.0000
    450 C         158.4109  189.8619   57.6516 C.3      64      M_A    0.0000
    451 O         157.4181  188.9689   58.1542 O.3      64      M_A    0.0000
    452 H         159.4166  191.4052   58.7561 H        64      M_A    0.0000
    453 H         158.8040  190.0869   59.7650 H        64      M_A    0.0000
    454 H         157.9312  190.7506   57.2180 H        64      M_A    0.0000
    455 H         159.0034  189.3653   56.8716 H        64      M_A    0.0000
    456 C         156.2913  188.9453   57.3042 C.3      65      M_A    0.0000
    457 C         156.5069  188.0836   56.0662 C.3      65      M_A    0.0000
    458 O         155.7123  186.9046   56.1854 O.3      65      M_A    0.0000
    459 H         156.0758  189.9733   56.9917 H        65      M_A    0.0000
    460 H         155.4267  188.5815   57.8709 H        65      M_A    0.0000
    461 H         156.1884  188.6635   55.1885 H        65      M_A    0.0000
    462 H         157.5646  187.8139   55.9456 H        65      M_A    0.0000
    463 C         155.6077  186.2450   54.9417 C.3      66      M_A    0.0000
    464 C         156.9538  186.0852   54.2461 C.3      66      M_A    0.0000
    465 O         156.8105  185.1449   53.1825 O.3      66      M_A    0.0000
    466 H         154.9397  186.8292   54.2987 H        66      M_A    0.0000
    467 H         155.1452  185.2639   55.0980 H        66      M_A    0.0000
    468 H         157.2472  187.0649   53.8436 H        66      M_A    0.0000
    469 H         157.7285  185.7456   54.9467 H        66      M_A    0.0000
    470 C         155.5545  185.2887   52.5547 C.3      67      M_A    0.0000
    471 C         155.6007  184.9652   51.0665 C.3      67      M_A    0.0000
    472 O         154.4576  184.1788   50.7335 O.3      67      M_A    0.0000
    473 H         155.2221  186.3247   52.6856 H        67      M_A    0.0000
    474 H         154.8292  184.6402   53.0592 H        67      M_A    0.0000
    475 H         155.5782  185.9135   50.5114 H        67      M_A    0.0000
    476 H         156.5193  184.4241   50.8029 H        67      M_A    0.0000
    477 C         154.0175  184.4672   49.4237 C.3      68      M_A    0.0000
    478 C         154.3055  183.3362   48.4443 C.3      68      M_A    0.0000
    479 O         153.6450  183.6190   47.2116 O.3      68      M_A    0.0000
    480 H         154.5278  185.3749   49.0824 H        68      M_A    0.0000
    481 H         152.9426  184.6794   49.4491 H        68      M_A    0.0000
    482 H         155.3922  183.2918   48.2860 H        68      M_A    0.0000
    483 H         153.9670  182.3689   48.8393 H        68      M_A    0.0000
    484 C         154.4900  183.3379   46.1163 C.3      69      M_A    0.0000
    485 C         153.7446  183.3222   44.7876 C.3      69      M_A    0.0000
    486 O         154.0968  184.4926   44.0515 O.3      69      M_A    0.0000
    487 H         154.9496  182.3567   46.2806 H        69      M_A    0.0000
    488 H         155.2944  184.0817   46.0887 H        69      M_A    0.0000
    489 H         154.0539  182.4241   44.2347 H        69      M_A    0.0000
    490 H         152.6575  183.2859   44.9391 H        69      M_A    0.0000
    491 C         153.9297  184.2803   42.6660 C.3      70      M_A    0.0000
    492 C         153.1881  185.4217   41.9815 C.3      70      M_A    0.0000
    493 O         153.9234  185.8161   40.8240 O.3      70      M_A    0.0000
    494 H         153.3643  183.3518   42.5270 H        70      M_A    0.0000
    495 H         154.9151  184.1417   42.2068 H        70      M_A    0.0000
    496 H         152.1949  185.0542   41.6876 H        70      M_A    0.0000
    497 H         153.0615  186.2785   42.6567 H        70      M_A    0.0000
    498 C         153.9302  187.2215   40.6916 C.3      71      M_A    0.0000
    499 C         154.5210  187.6841   39.3656 C.3      71      M_A    0.0000
    500 O         153.9244  188.9302   39.0088 O.3      71      M_A    0.0000
    501 H         154.5224  187.6405   41.5130 H        71      M_A    0.0000
    502 H         152.9046  187.5929   40.7975 H        71      M_A    0.0000
    503 H         155.6041  187.8123   39.5020 H        71      M_A    0.0000
    504 H         154.3508  186.9445   38.5719 H        71      M_A    0.0000
    505 C         154.4765  189.9840   39.7686 C.3      72      M_A    0.0000
    506 C         154.7289  191.2371   38.9394 C.3      72      M_A    0.0000
    507 O         154.0681  192.3381   39.5615 O.3      72      M_A    0.0000
    508 H         155.4257  189.6393   40.1943 H        72      M_A    0.0000
    509 H         153.8018  190.2124   40.6014 H        72      M_A    0.0000
    510 H         155.8131  191.4157   38.9145 H        72      M_A    0.0000
    511 H         154.3680  191.1148   37.9094 H        72      M_A    0.0000
    512 C         154.2901  193.5284   38.8358 C.3      73      M_A    0.0000
    513 C         153.4165  193.6300   37.5917 C.3      73      M_A    0.0000
    514 O         152.9016  194.9576   37.5014 O.3      73      M_A    0.0000
    515 H         155.3439  193.5562   38.5365 H        73      M_A    0.0000
    516 H         154.1087  194.3849   39.4950 H        73      M_A    0.0000
    517 H         154.0442  193.4109   36.7165 H        73      M_A    0.0000
    518 H         152.5902  192.9073   37.6228 H        73      M_A    0.0000
    519 C         151.4906  194.9444   37.4620 C.3      74      M_A    0.0000
    520 C         150.8849  196.3329   37.6245 C.3      74      M_A    0.0000
    521 O         150.2329  196.6930   36.4074 O.3      74      M_A    0.0000
    522 H         151.1309  194.2999   38.2721 H        74      M_A    0.0000
    523 H         151.1661  194.4999   36.5142 H        74      M_A    0.0000
    524 H         150.1534  196.2912   38.4437 H        74      M_A    0.0000
    525 H         151.6523  197.0775   37.8748 H        74      M_A    0.0000
    526 C         149.1434  197.5542   36.6604 C.3      75      M_A    0.0000
    527 C         149.5512  199.0216   36.7018 C.3      75      M_A    0.0000
    528 O         148.9469  199.6958   35.5991 O.3      75      M_A    0.0000
    529 H         148.7042  197.2773   37.6254 H        75      M_A    0.0000
    530 H         148.3801  197.3965   35.8899 H        75      M_A    0.0000
    531 H         149.1883  199.4489   37.6472 H        75      M_A    0.0000
    532 H         150.6428  199.1349   36.6598 H        75      M_A    0.0000
    533 C         148.5806  201.0110   35.9578 C.3      76      M_A    0.0000
    534 C         149.7199  202.0073   35.7816 C.3      76      M_A    0.0000
    535 O         149.6922  202.5021   34.4436 O.3      76      M_A    0.0000
    536 H         148.2689  201.0058   37.0083 H        76      M_A    0.0000
    537 H         147.7169  201.3156   35.3559 H        76      M_A    0.0000
    538 H         149.5626  202.8327   36.4901 H        76      M_A    0.0000
    539 H         150.6931  201.5435   35.9912 H        76      M_A    0.0000
    540 C         150.7454  201.9481   33.6844 C.3      77      M_A    0.0000
    541 C         150.9851  202.6954   32.3785 C.3      77      M_A    0.0000
    542 O         152.2823  202.3577   31.8894 O.3      77      M_A    0.0000
    543 H         150.4944  200.9054   33.4593 H        77      M_A    0.0000
    544 H         151.6580  201.9471   34.2912 H        77      M_A    0.0000
    545 H         150.2182  202.3768   31.6585 H        77      M_A    0.0000
    546 H         150.9070  203.7818   32.5190 H        77      M_A    0.0000
    547 C         152.3847  202.6389   30.5099 C.3      78      M_A    0.0000
    548 C         153.1258  203.9401   30.2286 C.3      78      M_A    0.0000
    549 O         153.2597  204.0943   28.8165 O.3      78      M_A    0.0000
    550 H         151.3716  202.7077   30.0977 H        78      M_A    0.0000
    551 H         152.8897  201.8024   30.0137 H        78      M_A    0.0000
    552 H         152.5305  204.7667   30.6414 H        78      M_A    0.0000
    553 H         154.1160  203.9473   30.7034 H        78      M_A    0.0000
    554 C         153.6273  205.4179   28.4913 C.3      79      M_A    0.0000
    555 C         153.4697  205.7241   27.0071 C.3      79      M_A    0.0000
    556 O         152.5813  206.8309   26.8600 O.3      79      M_A    0.0000
    557 H         154.6751  205.5630   28.7775 H        79      M_A    0.0000
    558 H         153.0210  206.1109   29.0857 H        79      M_A    0.0000
    559 H         154.4599  205.9820   26.6060 H        79      M_A    0.0000
    560 H         153.0824  204.8552   26.4582 H        79      M_A    0.0000
    561 C         152.1447  206.9464   25.5226 C.3      80      M_A    0.0000
    562 C         152.6116  208.2372   24.8612 C.3      80      M_A    0.0000
    563 O         152.6701  208.0332   23.4503 O.3      80      M_A    0.0000
    564 H         151.0493  206.9166   25.5156 H        80      M_A    0.0000
    565 H         152.5048  206.0805   24.9556 H        80      M_A    0.0000
    566 H         151.8809  209.0236   25.0965 H        80      M_A    0.0000
    567 H         153.5959  208.5464   25.2378 H        80      M_A    0.0000
    568 C         151.3715  207.9314   22.9062 C.3      81      M_A    0.0000
    569 C         151.2789  208.4997   21.4956 C.3      81      M_A    0.0000
    570 O         150.1702  207.8957   20.8309 O.3      81      M_A    0.0000
    571 H         150.6823  208.4792   23.5588 H        81      M_A    0.0000
    572 H         151.0668  206.8786   22.9094 H        81      M_A    0.0000
    573 H         151.1225  209.5847   21.5756 H        81      M_A    0.0000
    574 H         152.2020  208.3173   20.9293 H        81      M_A    0.0000
    575 C         149.5937  208.7925   19.9056 C.3      82      M_A    0.0000
    576 C         150.6366  209.5810   19.1233 C.3      82      M_A    0.0000
    577 O         149.9699  210.3715   18.1402 O.3      82      M_A    0.0000
    578 H         148.9559  209.4920   20.4577 H        82      M_A    0.0000
    579 H         148.9526  208.2294   19.2178 H        82      M_A    0.0000
    580 H         151.1706  210.2325   19.8293 H        82      M_A    0.0000
    581 H         151.3633  208.9141   18.6404 H        82      M_A    0.0000
    582 C         148.5741  210.3571   18.3504 C.3      83      M_A    0.0000
    583 C         147.8782  211.5774   17.7604 C.3      83      M_A    0.0000
    584 O         147.2773  211.2065   16.5205 O.3      83      M_A    0.0000
    585 H         148.3902  210.3274   19.4303 H        83      M_A    0.0000
    586 H         148.1594  209.4401   17.9168 H        83      M_A    0.0000
    587 H         147.1044  211.9036   18.4695 H        83      M_A    0.0000
    588 H         148.5841  212.4040   17.6040 H        83      M_A    0.0000
    589 C         148.0669  211.6398   15.4336 C.3      84      M_A    0.0000
    590 C         147.3764  211.4426   14.0898 C.3      84      M_A    0.0000
    591 O         146.9919  212.7191   13.5812 O.3      84      M_A    0.0000
    592 H         149.0035  211.0709   15.4417 H        84      M_A    0.0000
    593 H         148.3184  212.6969   15.5768 H        84      M_A    0.0000
    594 H         148.0930  210.9666   13.4058 H        84      M_A    0.0000
    595 H         146.4951  210.7942   14.1842 H        84      M_A    0.0000
    596 C         146.6344  212.6267   12.2188 C.3      85      M_A    0.0000
    597 C         145.1333  212.4648   12.0146 C.3      85      M_A    0.0000
    598 O         144.6417  213.6044   11.3107 O.3      85      M_A    0.0000
    599 H         147.1499  211.7615   11.7868 H        85      M_A    0.0000
    600 H         146.9917  213.5216   11.6966 H        85      M_A    0.0000
    601 H         144.9671  211.5559   11.4194 H        85      M_A    0.0000
    602 H         144.6081  212.3593   12.9733 H        85      M_A    0.0000
    603 C         143.3476  213.3581   10.8035 C.3      86      M_A    0.0000
    604 C         142.3988  214.5307   11.0186 C.3      86      M_A    0.0000
    605 O         142.2848  215.2572    9.7959 O.3      86      M_A    0.0000
    606 H         142.9437  212.4735   11.3088 H        86      M_A    0.0000
    607 H         143.4234  213.1254    9.7352 H        86      M_A    0.0000
    608 H         141.4185  214.1264   11.3074 H        86      M_A    0.0000
    609 H         142.7564  215.1933   11.8181 H        86      M_A    0.0000
    610 C         141.2269  216.1892    9.8656 C.3      87      M_A    0.0000
    611 C         141.6690  217.6070    9.5254 C.3      87      M_A    0.0000
    612 O         140.5665  218.3037    8.9467 O.3      87      M_A    0.0000
    613 H         140.8236  216.1748   10.8845 H        87      M_A    0.0000
    614 H         140.4276  215.8703    9.1869 H        87      M_A    0.0000
    615 H         141.9766  218.1004   10.4581 H        87      M_A    0.0000
    616 H         142.5194  217.6051    8.8305 H        87      M_A    0.0000
    617 C         140.5796  219.6630    9.3270 C.3      88      M_A    0.0000
    618 C         140.2262  220.5985    8.1775 C.3      88      M_A    0.0000
    619 O         138.8753  221.0293    8.3369 O.3      88      M_A    0.0000
    620 H         141.5836  219.9075    9.6918 H        88      M_A    0.0000
    621 H         139.8797  219.8058   10.1582 H        88      M_A    0.0000
    622 H         140.9034  221.4631    8.2221 H        88      M_A    0.0000
    623 H         140.3509  220.1029    7.2055 H        88      M_A    0.0000
    624 C         138.6649  222.2641    7.6860 C.3      89      M_A    0.0000
    625 C         137.6270  222.1732    6.5742 C.3      89      M_A    0.0000
    626 O         136.6447  223.1871    6.7812 O.3      89      M_A    0.0000
    627 H         139.6188  222.5938    7.2591 H        89      M_A    0.0000
    628 H         138.3576  223.0090    8.4287 H        89      M_A    0.0000
    629 H         138.1397  222.3376    5.6160 H        89      M_A    0.0000
    630 H         137.1488  221.1847    6.5531 H        89      M_A    0.0000
    631 C         136.1506  223.6630    5.5474 C.3      90      M_A    0.0000
    632 C         134.6330  223.5726    5.4478 C.3      90      M_A    0.0000
    633 O         134.1322  224.8136    4.9528 O.3      90      M_A    0.0000
    634 H         136.5983  223.0654    4.7453 H        90      M_A    0.0000
    635 H         136.4764  224.7004    5.4110 H        90      M_A    0.0000
    636 H         134.3857  222.7624    4.7476 H        90      M_A    0.0000
    637 H         134.1807  223.3464    6.4226 H        90      M_A    0.0000
    638 C         132.7251  224.7773    4.8458 C.3      91      M_A    0.0000
    639 C         132.1783  225.8537    3.9164 C.3      91      M_A    0.0000
    640 O         130.8409  225.5109    3.5562 O.3      91      M_A    0.0000
    641 H         132.3013  224.9192    5.8464 H        91      M_A    0.0000
    642 H         132.4215  223.7850    4.4934 H        91      M_A    0.0000
    643 H         132.1871  226.8090    4.4600 H        91      M_A    0.0000
    644 H         132.7966  225.9556    3.0146 H        91      M_A    0.0000
    645 C         129.9713  225.6683    4.6569 C.3      92      M_A    0.0000
    646 C         128.8984  226.7222    4.4125 C.3      92      M_A    0.0000
    647 O         127.7664  226.0925    3.8143 O.3      92      M_A    0.0000
    648 H         130.5692  225.9613    5.5273 H        92      M_A    0.0000
    649 H         129.5062  224.7020    4.8827 H        92      M_A    0.0000
    650 H         128.6180  227.1536    5.3837 H        92      M_A    0.0000
    651 H         129.2684  227.5267    3.7630 H        92      M_A    0.0000
    652 C         127.7832  226.2622    2.4130 C.3      93      M_A    0.0000
    653 C         126.6212  227.1093    1.9095 C.3      93      M_A    0.0000
    654 O         127.1445  228.2026    1.1566 O.3      93      M_A    0.0000
    655 H         127.7324  225.2717    1.9469 H        93      M_A    0.0000
    656 H         128.7363  226.7184    2.1221 H        93      M_A    0.0000
    657 H         125.9933  226.4772    1.2660 H        93      M_A    0.0000
    658 H         126.0092  227.4838    2.7409 H        93      M_A    0.0000
    659 C         126.1416  229.1651    0.9108 C.3      94      M_A    0.0000
    660 C         126.6444  230.5937    1.0772 C.3      94      M_A    0.0000
    661 O         125.7318  231.4784    0.4290 O.3      94      M_A    0.0000
    662 H         125.3192  228.9908    1.6138 H        94      M_A    0.0000
    663 H         125.7500  229.0188   -0.1023 H        94      M_A    0.0000
    664 H         126.6838  230.8173    2.1526 H        94      M_A    0.0000
    665 H         127.6508  230.7155    0.6548 H        94      M_A    0.0000
    666 C         124.6576  230.7598   -0.1387 C.3      95      M_A    0.0000
    667 C         123.3035  231.2018    0.4022 C.3      95      M_A    0.0000
    668 O         122.2847  230.7452   -0.4863 O.3      95      M_A    0.0000
    669 H         124.8015  229.6962    0.0825 H        95      M_A    0.0000
    670 H         124.6861  230.8801   -1.2276 H        95      M_A    0.0000
    671 H         123.1683  230.7467    1.3935 H        95      M_A    0.0000
    672 H         123.2510  232.2939    0.5056 H        95      M_A    0.0000
    673 C         122.7445  230.7556   -1.8208 C.3      96      M_A    0.0000
    674 C         124.2648  230.7822   -1.9186 C.3      96      M_A    0.0000
    675 O         124.6427  231.7310   -2.9150 O.3      96      M_A    0.0000
    676 H         122.3383  231.6444   -2.3167 H        96      M_A    0.0000
    677 H         122.3486  229.8750   -2.3395 H        96      M_A    0.0000
    678 H         124.6632  231.0865   -0.9406 H        96      M_A    0.0000
    679 H         124.6669  229.7917   -2.1704 H        96      M_A    0.0000
    680 H         125.6022  231.9237   -2.8640 H        96      M_A    0.0000
    681 H         268.8558  153.7644   50.9881 H         0      M_A    0.0000
@<TRIPOS>BOND
     1     1     2      1
     2     1     4      1
     3     1     5      1
     4     1   681      1
     5     2     3      1
     6     2     6      1
     7     2     7      1
     8     3     8      1
     9     8     9      1
    10     8    11      1
    11     8    12      1
    12     9    10      1
    13     9    13      1
    14     9    14      1
    15    10    15      1
    16    15    16      1
    17    15    18      1
    18    15    19      1
    19    16    17      1
    20    16    20      1
    21    16    21      1
    22    17    22      1
    23    22    23      1
    24    22    25      1
    25    22    26      1
    26    23    24      1
    27    23    27      1
    28    23    28      1
    29    24    29      1
    30    29    30      1
    31    29    32      1
    32    29    33      1
    33    30    31      1
    34    30    34      1
    35    30    35      1
    36    31    36      1
    37    36    37      1
    38    36    39      1
    39    36    40      1
    40    37    38      1
    41    37    41      1
    42    37    42      1
    43    38    43      1
    44    43    44      1
    45    43    46      1
    46    43    47      1
    47    44    45      1
    48    44    48      1
    49    44    49      1
    50    45    50      1
    51    50    51      1
    52    50    53      1
    53    50    54      1
    54    51    52      1
    55    51    55      1
    56    51    56      1
    57    52    57      1
    58    57    58      1
    59    57    60      1
    60    57    61      1
    61    58    59      1
    62    58    62      1
    63    58    63      1
    64    59    64      1
    65    64    65      1
    66    64    67      1
    67    64    68      1
    68    65    66      1
    69    65    69      1
    70    65    70      1
    71    66    71      1
    72    71    72      1
    73    71    74      1
    74    71    75      1
    75    72    73      1
    76    72    76      1
    77    72    77      1
    78    73    78      1
    79    78    79      1
    80    78    81      1
    81    78    82      1
    82    79    80      1
    83    79    83      1
    84    79    84      1
    85    80    85      1
    86    85    86      1
    87    85    88      1
    88    85    89      1
    89    86    87      1
    90    86    90      1
    91    86    91      1
    92    87    92      1
    93    92    93      1
    94    92    95      1
    95    92    96      1
    96    93    94      1
    97    93    97      1
    98    93    98      1
    99    94    99      1
   100    99   100      1
   101    99   102      1
   102    99   103      1
   103   100   101      1
   104   100   104      1
   105   100   105      1
   106   101   106      1
   107   106   107      1
   108   106   109      1
   109   106   110      1
   110   107   108      1
   111   107   111      1
   112   107   112      1
   113   108   113      1
   114   113   114      1
   115   113   116      1
   116   113   117      1
   117   114   115      1
   118   114   118      1
   119   114   119      1
   120   115   120      1
   121   120   121      1
   122   120   123      1
   123   120   124      1
   124   121   122      1
   125   121   125      1
   126   121   126      1
   127   122   127      1
   128   127   128      1
   129   127   130      1
   130   127   131      1
   131   128   129      1
   132   128   132      1
   133   128   133      1
   134   129   134      1
   135   134   135      1
   136   134   137      1
   137   134   138      1
   138   135   136      1
   139   135   139      1
   140   135   140      1
   141   136   141      1
   142   141   142      1
   143   141   144      1
   144   141   145      1
   145   142   143      1
   146   142   146      1
   147   142   147      1
   148   143   148      1
   149   148   149      1
   150   148   151      1
   151   148   152      1
   152   149   150      1
   153   149   153      1
   154   149   154      1
   155   150   155      1
   156   155   156      1
   157   155   158      1
   158   155   159      1
   159   156   157      1
   160   156   160      1
   161   156   161      1
   162   157   162      1
   163   162   163      1
   164   162   165      1
   165   162   166      1
   166   163   164      1
   167   163   167      1
   168   163   168      1
   169   164   169      1
   170   169   170      1
   171   169   172      1
   172   169   173      1
   173   170   171      1
   174   170   174      1
   175   170   175      1
   176   171   176      1
   177   176   177      1
   178   176   179      1
   179   176   180      1
   180   177   178      1
   181   177   181      1
   182   177   182      1
   183   178   183      1
   184   183   184      1
   185   183   186      1
   186   183   187      1
   187   184   185      1
   188   184   188      1
   189   184   189      1
   190   185   190      1
   191   190   191      1
   192   190   193      1
   193   190   194      1
   194   191   192      1
   195   191   195      1
   196   191   196      1
   197   192   197      1
   198   197   198      1
   199   197   200      1
   200   197   201      1
   201   198   199      1
   202   198   202      1
   203   198   203      1
   204   199   204      1
   205   204   205      1
   206   204   207      1
   207   204   208      1
   208   205   206      1
   209   205   209      1
   210   205   210      1
   211   206   211      1
   212   211   212      1
   213   211   214      1
   214   211   215      1
   215   212   213      1
   216   212   216      1
   217   212   217      1
   218   213   218      1
   219   218   219      1
   220   218   221      1
   221   218   222      1
   222   219   220      1
   223   219   223      1
   224   219   224      1
   225   220   225      1
   226   225   226      1
   227   225   228      1
   228   225   229      1
   229   226   227      1
   230   226   230      1
   231   226   231      1
   232   227   232      1
   233   232   233      1
   234   232   235      1
   235   232   236      1
   236   233   234      1
   237   233   237      1
   238   233   238      1
   239   234   239      1
   240   239   240      1
   241   239   242      1
   242   239   243      1
   243   240   241      1
   244   240   244      1
   245   240   245      1
   246   241   246      1
   247   246   247      1
   248   246   249      1
   249   246   250      1
   250   247   248      1
   251   247   251      1
   252   247   252      1
   253   248   253      1
   254   253   254      1
   255   253   256      1
   256   253   257      1
   257   254   255      1
   258   254   258      1
   259   254   259      1
   260   255   260      1
   261   260   261      1
   262   260   263      1
   263   260   264      1
   264   261   262      1
   265   261   265      1
   266   261   266      1
   267   262   267      1
   268   267   268      1
   269   267   270      1
   270   267   271      1
   271   268   269      1
   272   268   272      1
   273   268   273      1
   274   269   274      1
   275   274   275      1
   276   274   277      1
   277   274   278      1
   278   275   276      1
   279   275   279      1
   280   275   280      1
   281   276   281      1
   282   281   282      1
   283   281   284      1
   284   281   285      1
   285   282   283      1
   286   282   286      1
   287   282   287      1
   288   283   288      1
   289   288   289      1
   290   288   291      1
   291   288   292      1
   292   289   290      1
   293   289   293      1
   294   289   294      1
   295   290   295      1
   296   295   296      1
   297   295   298      1
   298   295   299      1
   299   296   297      1
   300   296   300      1
   301   296   301      1
   302   297   302      1
   303   302   303      1
   304   302   305      1
   305   302   306      1
   306   303   304      1
   307   303   307      1
   308   303   308      1
   309   304   309      1
   310   309   310      1
   311   309   312      1
   312   309   313      1
   313   310   311      1
   314   310   314      1
   315   310   315      1
   316   311   316      1
   317   316   317      1
   318   316   319      1
   319   316   320      1
   320   317   318      1
   321   317   321      1
   322   317   322      1
   323   318   323      1
   324   323   324      1
   325   323   326      1
   326   323   327      1
   327   324   325      1
   328   324   328      1
   329   324   329      1
   330   325   330      1
   331   330   331      1
   332   330   333      1
   333   330   334      1
   334   331   332      1
   335   331   335      1
   336   331   336      1
   337   332   337      1
   338   337   338      1
   339   337   340      1
   340   337   341      1
   341   338   339      1
   342   338   342      1
   343   338   343      1
   344   339   344      1
   345   344   345      1
   346   344   347      1
   347   344   348      1
   348   345   346      1
   349   345   349      1
   350   345   350      1
   351   346   351      1
   352   351   352      1
   353   351   354      1
   354   351   355      1
   355   352   353      1
   356   352   356      1
   357   352   357      1
   358   353   358      1
   359   358   359      1
   360   358   361      1
   361   358   362      1
   362   359   360      1
   363   359   363      1
   364   359   364      1
   365   360   365      1
   366   365   366      1
   367   365   368      1
   368   365   369      1
   369   366   367      1
   370   366   370      1
   371   366   371      1
   372   367   372      1
   373   372   373      1
   374   372   375      1
   375   372   376      1
   376   373   374      1
   377   373   377      1
   378   373   378      1
   379   374   379      1
   380   379   380      1
   381   379   382      1
   382   379   383      1
   383   380   381      1
   384   380   384      1
   385   380   385      1
   386   381   386      1
   387   386   387      1
   388   386   389      1
   389   386   390      1
   390   387   388      1
   391   387   391      1
   392   387   392      1
   393   388   393      1
   394   393   394      1
   395   393   396      1
   396   393   397      1
   397   394   395      1
   398   394   398      1
   399   394   399      1
   400   395   400      1
   401   400   401      1
   402   400   403      1
   403   400   404      1
   404   401   402      1
   405   401   405      1
   406   401   406      1
   407   402   407      1
   408   407   408      1
   409   407   410      1
   410   407   411      1
   411   408   409      1
   412   408   412      1
   413   408   413      1
   414   409   414      1
   415   414   415      1
   416   414   417      1
   417   414   418      1
   418   415   416      1
   419   415   419      1
   420   415   420      1
   421   416   421      1
   422   421   422      1
   423   421   424      1
   424   421   425      1
   425   422   423      1
   426   422   426      1
   427   422   427      1
   428   423   428      1
   429   428   429      1
   430   428   431      1
   431   428   432      1
   432   429   430      1
   433   429   433      1
   434   429   434      1
   435   430   435      1
   436   435   436      1
   437   435   438      1
   438   435   439      1
   439   436   437      1
   440   436   440      1
   441   436   441      1
   442   437   442      1
   443   442   443      1
   444   442   445      1
   445   442   446      1
   446   443   444      1
   447   443   447      1
   448   443   448      1
   449   444   449      1
   450   449   450      1
   451   449   452      1
   452   449   453      1
   453   450   451      1
   454   450   454      1
   455   450   455      1
   456   451   456      1
   457   456   457      1
   458   456   459      1
   459   456   460      1
   460   457   458      1
   461   457   461      1
   462   457   462      1
   463   458   463      1
   464   463   464      1
   465   463   466      1
   466   463   467      1
   467   464   465      1
   468   464   468      1
   469   464   469      1
   470   465   470      1
   471   470   471      1
   472   470   473      1
   473   470   474      1
   474   471   472      1
   475   471   475      1
   476   471   476      1
   477   472   477      1
   478   477   478      1
   479   477   480      1
   480   477   481      1
   481   478   479      1
   482   478   482      1
   483   478   483      1
   484   479   484      1
   485   484   485      1
   486   484   487      1
   487   484   488      1
   488   485   486      1
   489   485   489      1
   490   485   490      1
   491   486   491      1
   492   491   492      1
   493   491   494      1
   494   491   495      1
   495   492   493      1
   496   492   496      1
   497   492   497      1
   498   493   498      1
   499   498   499      1
   500   498   501      1
   501   498   502      1
   502   499   500      1
   503   499   503      1
   504   499   504      1
   505   500   505      1
   506   505   506      1
   507   505   508      1
   508   505   509      1
   509   506   507      1
   510   506   510      1
   511   506   511      1
   512   507   512      1
   513   512   513      1
   514   512   515      1
   515   512   516      1
   516   513   514      1
   517   513   517      1
   518   513   518      1
   519   514   519      1
   520   519   520      1
   521   519   522      1
   522   519   523      1
   523   520   521      1
   524   520   524      1
   525   520   525      1
   526   521   526      1
   527   526   527      1
   528   526   529      1
   529   526   530      1
   530   527   528      1
   531   527   531      1
   532   527   532      1
   533   528   533      1
   534   533   534      1
   535   533   536      1
   536   533   537      1
   537   534   535      1
   538   534   538      1
   539   534   539      1
   540   535   540      1
   541   540   541      1
   542   540   543      1
   543   540   544      1
   544   541   542      1
   545   541   545      1
   546   541   546      1
   547   542   547      1
   548   547   548      1
   549   547   550      1
   550   547   551      1
   551   548   549      1
   552   548   552      1
   553   548   553      1
   554   549   554      1
   555   554   555      1
   556   554   557      1
   557   554   558      1
   558   555   556      1
   559   555   559      1
   560   555   560      1
   561   556   561      1
   562   561   562      1
   563   561   564      1
   564   561   565      1
   565   562   563      1
   566   562   566      1
   567   562   567      1
   568   563   568      1
   569   568   569      1
   570   568   571      1
   571   568   572      1
   572   569   570      1
   573   569   573      1
   574   569   574      1
   575   570   575      1
   576   575   576      1
   577   575   578      1
   578   575   579      1
   579   576   577      1
   580   576   580      1
   581   576   581      1
   582   577   582      1
   583   582   583      1
   584   582   585      1
   585   582   586      1
   586   583   584      1
   587   583   587      1
   588   583   588      1
   589   584   589      1
   590   589   590      1
   591   589   592      1
   592   589   593      1
   593   590   591      1
   594   590   594      1
   595   590   595      1
   596   591   596      1
   597   596   597      1
   598   596   599      1
   599   596   600      1
   600   597   598      1
   601   597   601      1
   602   597   602      1
   603   598   603      1
   604   603   604      1
   605   603   606      1
   606   603   607      1
   607   604   605      1
   608   604   608      1
   609   604   609      1
   610   605   610      1
   611   610   611      1
   612   610   613      1
   613   610   614      1
   614   611   612      1
   615   611   615      1
   616   611   616      1
   617   612   617      1
   618   617   618      1
   619   617   620      1
   620   617   621      1
   621   618   619      1
   622   618   622      1
   623   618   623      1
   624   619   624      1
   625   624   625      1
   626   624   627      1
   627   624   628      1
   628   625   626      1
   629   625   629      1
   630   625   630      1
   631   626   631      1
   632   631   632      1
   633   631   634      1
   634   631   635      1
   635   632   633      1
   636   632   636      1
   637   632   637      1
   638   633   638      1
   639   638   639      1
   640   638   641      1
   641   638   642      1
   642   639   640      1
   643   639   643      1
   644   639   644      1
   645   640   645      1
   646   645   646      1
   647   645   648      1
   648   645   649      1
   649   646   647      1
   650   646   650      1
   651   646   651      1
   652   647   652      1
   653   652   653      1
   654   652   655      1
   655   652   656      1
   656   653   654      1
   657   653   657      1
   658   653   658      1
   659   654   659      1
   660   659   660      1
   661   659   662      1
   662   659   663      1
   663   660   661      1
   664   660   664      1
   665   660   665      1
   666   661   666      1
   667   666   667      1
   668   666   669      1
   669   666   670      1
   670   667   668      1
   671   667   671      1
   672   667   672      1
   673   668   673      1
   674   673   674      1
   675   673   676      1
   676   673   677      1
   677   674   675      1
   678   674   678      1
   679   674   679      1
   680   675   680      1
