###
### Created by PolyChef-cpp17 on Mon May 12 10:39:09 2025
###

@<TRIPOS>MOLECULE
NO_INFO
275 274 1 0 0
SMALL
USER_CHARGES


@<TRIPOS>ATOM
      1 C         237.8797  120.6430   28.8796 C.3       0      M_A    0.0000
      2 C         238.8139  120.4627   30.0725 C.3       0      M_A    0.0000
      3 O         238.1513  119.7631   31.1258 O.3       0      M_A    0.0000
      4 H         238.2028  119.9760   28.0722 H         0      M_A    0.0000
      5 H         236.8503  120.3741   29.1395 H         0      M_A    0.0000
      6 H         239.7307  119.9416   29.7612 H         0      M_A    0.0000
      7 H         239.1320  121.4336   30.4723 H         0      M_A    0.0000
      8 C         237.5990  118.5448   30.6701 C.3       1      M_A    0.0000
      9 C         236.4436  118.0741   31.5485 C.3       1      M_A    0.0000
     10 O         235.5554  117.2413   30.8032 O.3       1      M_A    0.0000
     11 H         238.3910  117.7874   30.6903 H         1      M_A    0.0000
     12 H         237.2810  118.6639   29.6289 H         1      M_A    0.0000
     13 H         236.8296  117.5532   32.4365 H         1      M_A    0.0000
     14 H         235.8607  118.9261   31.9202 H         1      M_A    0.0000
     15 C         234.8292  117.9855   29.8463 C.3       2      M_A    0.0000
     16 C         234.7673  117.2784   28.4956 C.3       2      M_A    0.0000
     17 O         233.4768  116.7035   28.2904 O.3       2      M_A    0.0000
     18 H         235.3317  118.9510   29.7183 H         2      M_A    0.0000
     19 H         233.8248  118.1838   30.2351 H         2      M_A    0.0000
     20 H         235.0261  117.9787   27.6884 H         2      M_A    0.0000
     21 H         235.5013  116.4645   28.4445 H         2      M_A    0.0000
     22 C         233.3838  116.0795   27.0259 C.3       3      M_A    0.0000
     23 C         231.9676  115.5967   26.7267 C.3       3      M_A    0.0000
     24 O         231.5330  116.0780   25.4550 O.3       3      M_A    0.0000
     25 H         234.0600  115.2169   27.0253 H         3      M_A    0.0000
     26 H         233.7347  116.7760   26.2570 H         3      M_A    0.0000
     27 H         231.9225  114.4992   26.7756 H         3      M_A    0.0000
     28 H         231.2594  115.9679   27.4780 H         3      M_A    0.0000
     29 C         230.5096  115.2657   24.9167 C.3       4      M_A    0.0000
     30 C         229.2930  116.0821   24.4906 C.3       4      M_A    0.0000
     31 O         229.0225  115.8897   23.1022 O.3       4      M_A    0.0000
     32 H         230.2043  114.5517   25.6901 H         4      M_A    0.0000
     33 H         230.9141  114.6912   24.0766 H         4      M_A    0.0000
     34 H         228.4227  115.8167   25.1081 H         4      M_A    0.0000
     35 H         229.4656  117.1543   24.6462 H         4      M_A    0.0000
     36 C         227.6414  116.0000   22.8242 C.3       5      M_A    0.0000
     37 C         227.3530  117.0495   21.7549 C.3       5      M_A    0.0000
     38 O         226.2359  116.6574   20.9572 O.3       5      M_A    0.0000
     39 H         227.1331  116.2893   23.7512 H         5      M_A    0.0000
     40 H         227.2569  115.0181   22.5283 H         5      M_A    0.0000
     41 H         227.1862  118.0310   22.2217 H         5      M_A    0.0000
     42 H         228.2110  117.1703   21.0819 H         5      M_A    0.0000
     43 C         225.0166  116.8469   21.6459 C.3       6      M_A    0.0000
     44 C         223.8250  116.9152   20.6953 C.3       6      M_A    0.0000
     45 O         222.9027  115.8614   20.9724 O.3       6      M_A    0.0000
     46 H         225.0846  117.7914   22.1977 H         6      M_A    0.0000
     47 H         224.8918  116.0431   22.3792 H         6      M_A    0.0000
     48 H         223.3401  117.8996   20.7648 H         6      M_A    0.0000
     49 H         224.1477  116.8037   19.6526 H         6      M_A    0.0000
     50 C         222.0436  115.6243   19.8758 C.3       7      M_A    0.0000
     51 C         222.0564  114.1615   19.4421 C.3       7      M_A    0.0000
     52 O         220.7312  113.6309   19.4318 O.3       7      M_A    0.0000
     53 H         222.3854  116.2450   19.0396 H         7      M_A    0.0000
     54 H         221.0313  115.9501   20.1379 H         7      M_A    0.0000
     55 H         222.5347  114.0618   18.4572 H         7      M_A    0.0000
     56 H         222.6490  113.5517   20.1355 H         7      M_A    0.0000
     57 C         220.7343  112.2282   19.6027 C.3       8      M_A    0.0000
     58 C         220.2960  111.4948   18.3385 C.3       8      M_A    0.0000
     59 O         221.3091  110.5842   17.9114 O.3       8      M_A    0.0000
     60 H         220.0371  111.9858   20.4129 H         8      M_A    0.0000
     61 H         221.7331  111.9089   19.9187 H         8      M_A    0.0000
     62 H         219.3410  110.9781   18.5113 H         8      M_A    0.0000
     63 H         220.1204  112.2000   17.5165 H         8      M_A    0.0000
     64 C         221.0255  109.2634   18.3261 C.3       9      M_A    0.0000
     65 C         221.7730  108.2269   17.4924 C.3       9      M_A    0.0000
     66 O         222.6787  107.4858   18.3098 O.3       9      M_A    0.0000
     67 H         219.9478  109.0989   18.2134 H         9      M_A    0.0000
     68 H         221.2663  109.1634   19.3898 H         9      M_A    0.0000
     69 H         221.0594  107.5634   16.9831 H         9      M_A    0.0000
     70 H         222.3626  108.7094   16.7028 H         9      M_A    0.0000
     71 C         223.3505  106.4899   17.5657 C.3      10      M_A    0.0000
     72 C         224.2578  105.6320   18.4427 C.3      10      M_A    0.0000
     73 O         224.3410  104.3032   17.9276 O.3      10      M_A    0.0000
     74 H         223.9620  106.9912   16.8067 H        10      M_A    0.0000
     75 H         222.6107  105.8751   17.0419 H        10      M_A    0.0000
     76 H         225.2529  106.0924   18.5238 H        10      M_A    0.0000
     77 H         223.8655  105.5640   19.4651 H        10      M_A    0.0000
     78 C         225.6368  104.0169   17.4421 C.3      11      M_A    0.0000
     79 C         226.0462  102.5726   17.7154 C.3      11      M_A    0.0000
     80 O         226.4727  101.9368   16.5106 O.3      11      M_A    0.0000
     81 H         226.3417  104.6869   17.9475 H        11      M_A    0.0000
     82 H         225.6751  104.2427   16.3711 H        11      M_A    0.0000
     83 H         226.8313  102.5398   18.4845 H        11      M_A    0.0000
     84 H         225.2025  101.9937   18.1115 H        11      M_A    0.0000
     85 C         226.1608  100.5585   16.5148 C.3      12      M_A    0.0000
     86 C         227.4121   99.6869   16.5672 C.3      12      M_A    0.0000
     87 O         227.1540   98.4839   17.2912 O.3      12      M_A    0.0000
     88 H         225.6111  100.3346   15.5934 H        12      M_A    0.0000
     89 H         225.4949  100.3454   17.3578 H        12      M_A    0.0000
     90 H         227.7681   99.4724   15.5493 H        12      M_A    0.0000
     91 H         228.2322  100.2076   17.0771 H        12      M_A    0.0000
     92 C         225.8689   97.9721   17.0025 C.3      13      M_A    0.0000
     93 C         225.9159   96.5063   16.5812 C.3      13      M_A    0.0000
     94 O         225.2452   95.6883   17.5397 O.3      13      M_A    0.0000
     95 H         225.4471   98.5635   16.1818 H        13      M_A    0.0000
     96 H         225.2240   98.1116   17.8767 H        13      M_A    0.0000
     97 H         225.4813   96.3856   15.5784 H        13      M_A    0.0000
     98 H         226.9516   96.1505   16.5130 H        13      M_A    0.0000
     99 C         224.9358   94.4162   17.0078 C.3      14      M_A    0.0000
    100 C         223.7728   93.7546   17.7412 C.3      14      M_A    0.0000
    101 O         222.6966   93.4935   16.8405 O.3      14      M_A    0.0000
    102 H         225.8248   93.7833   17.1090 H        14      M_A    0.0000
    103 H         224.7219   94.5183   15.9385 H        14      M_A    0.0000
    104 H         224.1116   92.8336   18.2371 H        14      M_A    0.0000
    105 H         223.3866   94.4072   18.5342 H        14      M_A    0.0000
    106 C         221.4651   93.3818   17.5245 C.3      15      M_A    0.0000
    107 C         220.2714   93.5443   16.5881 C.3      15      M_A    0.0000
    108 O         219.6671   92.2784   16.3232 O.3      15      M_A    0.0000
    109 H         221.4292   94.1704   18.2848 H        15      M_A    0.0000
    110 H         221.4313   92.4186   18.0446 H        15      M_A    0.0000
    111 H         219.5466   94.2516   17.0164 H        15      M_A    0.0000
    112 H         220.5828   93.9677   15.6250 H        15      M_A    0.0000
    113 C         218.6783   92.3774   15.3186 C.3      16      M_A    0.0000
    114 C         218.4934   91.0644   14.5636 C.3      16      M_A    0.0000
    115 O         217.1063   90.7548   14.4303 O.3      16      M_A    0.0000
    116 H         218.9937   93.1522   14.6105 H        16      M_A    0.0000
    117 H         217.7384   92.7074   15.7737 H        16      M_A    0.0000
    118 H         218.9873   91.1179   13.5827 H        16      M_A    0.0000
    119 H         218.9655   90.2326   15.1012 H        16      M_A    0.0000
    120 C         216.4823   91.5801   13.4679 C.3      17      M_A    0.0000
    121 C         215.3074   90.8827   12.7884 C.3      17      M_A    0.0000
    122 O         214.0697   91.4290   13.2440 O.3      17      M_A    0.0000
    123 H         217.2297   91.8366   12.7084 H        17      M_A    0.0000
    124 H         216.1649   92.5119   13.9480 H        17      M_A    0.0000
    125 H         215.4006   90.9601   11.6956 H        17      M_A    0.0000
    126 H         215.2991   89.8107   13.0217 H        17      M_A    0.0000
    127 C         212.9807   90.9482   12.4825 C.3      18      M_A    0.0000
    128 C         212.8798   89.4263   12.5224 C.3      18      M_A    0.0000
    129 O         211.5308   89.0200   12.7527 O.3      18      M_A    0.0000
    130 H         213.1288   91.2666   11.4443 H        18      M_A    0.0000
    131 H         212.0583   91.4152   12.8438 H        18      M_A    0.0000
    132 H         213.2737   88.9953   11.5907 H        18      M_A    0.0000
    133 H         213.4905   89.0135   13.3351 H        18      M_A    0.0000
    134 C         210.7743   89.0382   11.5593 C.3      19      M_A    0.0000
    135 C         209.2748   88.9530   11.8287 C.3      19      M_A    0.0000
    136 O         208.5700   89.9156   11.0448 O.3      19      M_A    0.0000
    137 H         211.0758   88.1743   10.9560 H        19      M_A    0.0000
    138 H         211.0233   89.9414   10.9921 H        19      M_A    0.0000
    139 H         208.9113   87.9340   11.6324 H        19      M_A    0.0000
    140 H         209.0528   89.1615   12.8827 H        19      M_A    0.0000
    141 C         207.2142   90.0061   11.4330 C.3      20      M_A    0.0000
    142 C         206.2673   89.5786   10.3156 C.3      20      M_A    0.0000
    143 O         205.1799   88.8195   10.8441 O.3      20      M_A    0.0000
    144 H         207.0072   91.0504   11.6931 H        20      M_A    0.0000
    145 H         207.0596   89.4034   12.3344 H        20      M_A    0.0000
    146 H         205.9091   90.4596    9.7639 H        20      M_A    0.0000
    147 H         206.7844   88.9459    9.5834 H        20      M_A    0.0000
    148 C         204.3955   89.5890   11.7326 C.3      21      M_A    0.0000
    149 C         202.9207   89.5917   11.3414 C.3      21      M_A    0.0000
    150 O         202.1010   89.3174   12.4775 O.3      21      M_A    0.0000
    151 H         204.7707   90.6185   11.7082 H        21      M_A    0.0000
    152 H         204.5337   89.2103   12.7509 H        21      M_A    0.0000
    153 H         202.6529   90.5520   10.8776 H        21      M_A    0.0000
    154 H         202.7121   88.8186   10.5914 H        21      M_A    0.0000
    155 C         200.7308   89.2924   12.1328 C.3      22      M_A    0.0000
    156 C         199.8298   89.5084   13.3451 C.3      22      M_A    0.0000
    157 O         198.6189   90.1586   12.9592 O.3      22      M_A    0.0000
    158 H         200.5106   88.3109   11.6978 H        22      M_A    0.0000
    159 H         200.5427   90.0465   11.3611 H        22      M_A    0.0000
    160 H         199.6275   88.5493   13.8432 H        22      M_A    0.0000
    161 H         200.3214   90.1454   14.0911 H        22      M_A    0.0000
    162 C         197.4969   89.5831   13.5969 C.3      23      M_A    0.0000
    163 C         196.1988   90.2951   13.2279 C.3      23      M_A    0.0000
    164 O         195.2089   89.3511   12.8194 O.3      23      M_A    0.0000
    165 H         197.6483   89.6605   14.6797 H        23      M_A    0.0000
    166 H         197.4494   88.5184   13.3444 H        23      M_A    0.0000
    167 H         195.8463   90.9037   14.0730 H        23      M_A    0.0000
    168 H         196.3555   90.9890   12.3926 H        23      M_A    0.0000
    169 C         193.9166   89.9226   12.8230 C.3      24      M_A    0.0000
    170 C         193.2640   89.8751   11.4445 C.3      24      M_A    0.0000
    171 O         191.8432   89.9503   11.5606 O.3      24      M_A    0.0000
    172 H         194.0118   90.9692   13.1343 H        24      M_A    0.0000
    173 H         193.3010   89.4097   13.5696 H        24      M_A    0.0000
    174 H         193.6567   90.6832   10.8107 H        24      M_A    0.0000
    175 H         193.5023   88.9361   10.9295 H        24      M_A    0.0000
    176 C         191.4147   91.2714   11.8216 C.3      25      M_A    0.0000
    177 C         190.4226   91.3351   12.9791 C.3      25      M_A    0.0000
    178 O         190.5331   92.5821   13.6650 O.3      25      M_A    0.0000
    179 H         190.9286   91.6530   10.9165 H        25      M_A    0.0000
    180 H         192.2907   91.8991   12.0169 H        25      M_A    0.0000
    181 H         189.3995   91.1702   12.6115 H        25      M_A    0.0000
    182 H         190.6194   90.5400   13.7091 H        25      M_A    0.0000
    183 C         189.4542   93.4404   13.3549 C.3      26      M_A    0.0000
    184 C         189.0856   94.3457   14.5265 C.3      26      M_A    0.0000
    185 O         188.8799   95.6854   14.0784 O.3      26      M_A    0.0000
    186 H         188.5890   92.8166   13.1030 H        26      M_A    0.0000
    187 H         189.7089   94.0278   12.4663 H        26      M_A    0.0000
    188 H         188.1965   93.9557   15.0424 H        26      M_A    0.0000
    189 H         189.8895   94.3688   15.2728 H        26      M_A    0.0000
    190 C         187.8311   96.3128   14.7879 C.3      27      M_A    0.0000
    191 C         188.0210   97.8242   14.8757 C.3      27      M_A    0.0000
    192 O         186.8921   98.5032   14.3259 O.3      27      M_A    0.0000
    193 H         187.8151   95.8980   15.8023 H        27      M_A    0.0000
    194 H         186.8773   96.0612   14.3121 H        27      M_A    0.0000
    195 H         188.1995   98.1243   15.9183 H        27      M_A    0.0000
    196 H         188.9043   98.1425   14.3080 H        27      M_A    0.0000
    197 C         186.7678   99.8092   14.8511 C.3      28      M_A    0.0000
    198 C         187.8245  100.7564   14.2904 C.3      28      M_A    0.0000
    199 O         187.2577  102.0403   14.0291 O.3      28      M_A    0.0000
    200 H         186.8880   99.7479   15.9388 H        28      M_A    0.0000
    201 H         185.7574  100.1806   14.6500 H        28      M_A    0.0000
    202 H         188.6754  100.8285   14.9830 H        28      M_A    0.0000
    203 H         188.2291  100.3771   13.3437 H        28      M_A    0.0000
    204 C         188.1893  102.8995   13.4040 C.3      29      M_A    0.0000
    205 C         187.7205  104.3515   13.4033 C.3      29      M_A    0.0000
    206 O         188.8158  105.2311   13.6575 O.3      29      M_A    0.0000
    207 H         188.3123  102.5661   12.3672 H        29      M_A    0.0000
    208 H         189.1594  102.7975   13.9019 H        29      M_A    0.0000
    209 H         187.2283  104.5910   12.4497 H        29      M_A    0.0000
    210 H         186.9726  104.5230   14.1876 H        29      M_A    0.0000
    211 C         188.5742  106.5220   13.1358 C.3      30      M_A    0.0000
    212 C         187.1157  106.9414   13.2938 C.3      30      M_A    0.0000
    213 O         186.9519  108.3192   12.9577 O.3      30      M_A    0.0000
    214 H         188.8252  106.5068   12.0691 H        30      M_A    0.0000
    215 H         189.2460  107.2362   13.6240 H        30      M_A    0.0000
    216 H         186.4677  106.3001   12.6791 H        30      M_A    0.0000
    217 H         186.7807  106.8142   14.3308 H        30      M_A    0.0000
    218 C         186.3196  108.4740   11.7035 C.3      31      M_A    0.0000
    219 C         186.3736  109.9158   11.2073 C.3      31      M_A    0.0000
    220 O         186.4416  109.9524    9.7818 O.3      31      M_A    0.0000
    221 H         185.2706  108.1768   11.8160 H        31      M_A    0.0000
    222 H         186.7820  107.7905   10.9834 H        31      M_A    0.0000
    223 H         185.5060  110.4785   11.5808 H        31      M_A    0.0000
    224 H         187.2632  110.4303   11.5919 H        31      M_A    0.0000
    225 C         185.8566  111.1308    9.2662 C.3      32      M_A    0.0000
    226 C         186.2152  112.3603   10.0956 C.3      32      M_A    0.0000
    227 O         186.9778  113.2834    9.3183 O.3      32      M_A    0.0000
    228 H         184.7684  111.0001    9.2784 H        32      M_A    0.0000
    229 H         186.1635  111.2550    8.2223 H        32      M_A    0.0000
    230 H         185.3035  112.8294   10.4927 H        32      M_A    0.0000
    231 H         186.8231  112.0830   10.9659 H        32      M_A    0.0000
    232 C         186.8090  113.0567    7.9337 C.3      33      M_A    0.0000
    233 C         187.2174  114.2674    7.0997 C.3      33      M_A    0.0000
    234 O         188.6293  114.2772    6.8896 O.3      33      M_A    0.0000
    235 H         185.7491  112.8434    7.7539 H        33      M_A    0.0000
    236 H         187.3794  112.1673    7.6451 H        33      M_A    0.0000
    237 H         186.6711  114.2726    6.1455 H        33      M_A    0.0000
    238 H         186.9547  115.2024    7.6102 H        33      M_A    0.0000
    239 C         189.1591  115.5828    6.9970 C.3      34      M_A    0.0000
    240 C         190.5862  115.5808    7.5368 C.3      34      M_A    0.0000
    241 O         191.5221  115.7845    6.4783 O.3      34      M_A    0.0000
    242 H         188.5209  116.1500    7.6842 H        34      M_A    0.0000
    243 H         189.1075  116.0710    6.0180 H        34      M_A    0.0000
    244 H         190.6966  116.3440    8.3206 H        34      M_A    0.0000
    245 H         190.8266  114.6191    8.0072 H        34      M_A    0.0000
    246 C         191.5116  117.1245    6.0295 C.3      35      M_A    0.0000
    247 C         192.9206  117.6899    5.8770 C.3      35      M_A    0.0000
    248 O         193.4631  117.3449    4.6025 O.3      35      M_A    0.0000
    249 H         190.9674  117.7232    6.7688 H        35      M_A    0.0000
    250 H         190.9588  117.1809    5.0858 H        35      M_A    0.0000
    251 H         192.9105  118.7793    6.0257 H        35      M_A    0.0000
    252 H         193.5926  117.2808    6.6417 H        35      M_A    0.0000
    253 C         194.6532  116.5942    4.7330 C.3      36      M_A    0.0000
    254 C         195.6996  116.9921    3.6963 C.3      36      M_A    0.0000
    255 O         197.0110  116.9198    4.2556 O.3      36      M_A    0.0000
    256 H         194.4014  115.5365    4.5946 H        36      M_A    0.0000
    257 H         195.0403  116.7121    5.7507 H        36      M_A    0.0000
    258 H         195.6101  116.3567    2.8035 H        36      M_A    0.0000
    259 H         195.5437  118.0238    3.3570 H        36      M_A    0.0000
    260 C         197.8647  117.9000    3.7012 C.3      37      M_A    0.0000
    261 C         198.8911  117.2947    2.7482 C.3      37      M_A    0.0000
    262 O         198.7494  117.8507    1.4411 O.3      37      M_A    0.0000
    263 H         198.3932  118.3920    4.5257 H        37      M_A    0.0000
    264 H         197.2571  118.6593    3.1974 H        37      M_A    0.0000
    265 H         199.9076  117.4463    3.1392 H        37      M_A    0.0000
    266 H         198.7534  116.2098    2.6604 H        37      M_A    0.0000
    267 C         197.4299  117.7041    0.9569 C.3      38      M_A    0.0000
    268 C         196.4442  118.6049    1.6951 C.3      38      M_A    0.0000
    269 O         196.4626  119.9226    1.1463 O.3      38      M_A    0.0000
    270 H         197.1321  116.6593    1.1013 H        38      M_A    0.0000
    271 H         197.4198  117.9057   -0.1196 H        38      M_A    0.0000
    272 H         195.4344  118.1713    1.6602 H        38      M_A    0.0000
    273 H         196.7073  118.6877    2.7570 H        38      M_A    0.0000
    274 H         195.7776  120.0324    0.4541 H        38      M_A    0.0000
    275 H         237.8950  121.6637   28.4974 H         0      M_A    0.0000
@<TRIPOS>BOND
     1     1     2      1
     2     1     4      1
     3     1     5      1
     4     1   275      1
     5     2     3      1
     6     2     6      1
     7     2     7      1
     8     3     8      1
     9     8     9      1
    10     8    11      1
    11     8    12      1
    12     9    10      1
    13     9    13      1
    14     9    14      1
    15    10    15      1
    16    15    16      1
    17    15    18      1
    18    15    19      1
    19    16    17      1
    20    16    20      1
    21    16    21      1
    22    17    22      1
    23    22    23      1
    24    22    25      1
    25    22    26      1
    26    23    24      1
    27    23    27      1
    28    23    28      1
    29    24    29      1
    30    29    30      1
    31    29    32      1
    32    29    33      1
    33    30    31      1
    34    30    34      1
    35    30    35      1
    36    31    36      1
    37    36    37      1
    38    36    39      1
    39    36    40      1
    40    37    38      1
    41    37    41      1
    42    37    42      1
    43    38    43      1
    44    43    44      1
    45    43    46      1
    46    43    47      1
    47    44    45      1
    48    44    48      1
    49    44    49      1
    50    45    50      1
    51    50    51      1
    52    50    53      1
    53    50    54      1
    54    51    52      1
    55    51    55      1
    56    51    56      1
    57    52    57      1
    58    57    58      1
    59    57    60      1
    60    57    61      1
    61    58    59      1
    62    58    62      1
    63    58    63      1
    64    59    64      1
    65    64    65      1
    66    64    67      1
    67    64    68      1
    68    65    66      1
    69    65    69      1
    70    65    70      1
    71    66    71      1
    72    71    72      1
    73    71    74      1
    74    71    75      1
    75    72    73      1
    76    72    76      1
    77    72    77      1
    78    73    78      1
    79    78    79      1
    80    78    81      1
    81    78    82      1
    82    79    80      1
    83    79    83      1
    84    79    84      1
    85    80    85      1
    86    85    86      1
    87    85    88      1
    88    85    89      1
    89    86    87      1
    90    86    90      1
    91    86    91      1
    92    87    92      1
    93    92    93      1
    94    92    95      1
    95    92    96      1
    96    93    94      1
    97    93    97      1
    98    93    98      1
    99    94    99      1
   100    99   100      1
   101    99   102      1
   102    99   103      1
   103   100   101      1
   104   100   104      1
   105   100   105      1
   106   101   106      1
   107   106   107      1
   108   106   109      1
   109   106   110      1
   110   107   108      1
   111   107   111      1
   112   107   112      1
   113   108   113      1
   114   113   114      1
   115   113   116      1
   116   113   117      1
   117   114   115      1
   118   114   118      1
   119   114   119      1
   120   115   120      1
   121   120   121      1
   122   120   123      1
   123   120   124      1
   124   121   122      1
   125   121   125      1
   126   121   126      1
   127   122   127      1
   128   127   128      1
   129   127   130      1
   130   127   131      1
   131   128   129      1
   132   128   132      1
   133   128   133      1
   134   129   134      1
   135   134   135      1
   136   134   137      1
   137   134   138      1
   138   135   136      1
   139   135   139      1
   140   135   140      1
   141   136   141      1
   142   141   142      1
   143   141   144      1
   144   141   145      1
   145   142   143      1
   146   142   146      1
   147   142   147      1
   148   143   148      1
   149   148   149      1
   150   148   151      1
   151   148   152      1
   152   149   150      1
   153   149   153      1
   154   149   154      1
   155   150   155      1
   156   155   156      1
   157   155   158      1
   158   155   159      1
   159   156   157      1
   160   156   160      1
   161   156   161      1
   162   157   162      1
   163   162   163      1
   164   162   165      1
   165   162   166      1
   166   163   164      1
   167   163   167      1
   168   163   168      1
   169   164   169      1
   170   169   170      1
   171   169   172      1
   172   169   173      1
   173   170   171      1
   174   170   174      1
   175   170   175      1
   176   171   176      1
   177   176   177      1
   178   176   179      1
   179   176   180      1
   180   177   178      1
   181   177   181      1
   182   177   182      1
   183   178   183      1
   184   183   184      1
   185   183   186      1
   186   183   187      1
   187   184   185      1
   188   184   188      1
   189   184   189      1
   190   185   190      1
   191   190   191      1
   192   190   193      1
   193   190   194      1
   194   191   192      1
   195   191   195      1
   196   191   196      1
   197   192   197      1
   198   197   198      1
   199   197   200      1
   200   197   201      1
   201   198   199      1
   202   198   202      1
   203   198   203      1
   204   199   204      1
   205   204   205      1
   206   204   207      1
   207   204   208      1
   208   205   206      1
   209   205   209      1
   210   205   210      1
   211   206   211      1
   212   211   212      1
   213   211   214      1
   214   211   215      1
   215   212   213      1
   216   212   216      1
   217   212   217      1
   218   213   218      1
   219   218   219      1
   220   218   221      1
   221   218   222      1
   222   219   220      1
   223   219   223      1
   224   219   224      1
   225   220   225      1
   226   225   226      1
   227   225   228      1
   228   225   229      1
   229   226   227      1
   230   226   230      1
   231   226   231      1
   232   227   232      1
   233   232   233      1
   234   232   235      1
   235   232   236      1
   236   233   234      1
   237   233   237      1
   238   233   238      1
   239   234   239      1
   240   239   240      1
   241   239   242      1
   242   239   243      1
   243   240   241      1
   244   240   244      1
   245   240   245      1
   246   241   246      1
   247   246   247      1
   248   246   249      1
   249   246   250      1
   250   247   248      1
   251   247   251      1
   252   247   252      1
   253   248   253      1
   254   253   254      1
   255   253   256      1
   256   253   257      1
   257   254   255      1
   258   254   258      1
   259   254   259      1
   260   255   260      1
   261   260   261      1
   262   260   263      1
   263   260   264      1
   264   261   262      1
   265   261   265      1
   266   261   266      1
   267   262   267      1
   268   267   268      1
   269   267   270      1
   270   267   271      1
   271   268   269      1
   272   268   272      1
   273   268   273      1
   274   269   274      1
