###
### Created by PolyChef-cpp17 on Mon May 12 10:39:09 2025
###

@<TRIPOS>MOLECULE
NO_INFO
261 260 1 0 0
SMALL
USER_CHARGES


@<TRIPOS>ATOM
      1 C          49.2593  137.1079   17.7762 C.3       0      M_A    0.0000
      2 C          50.1115  137.5664   18.9530 C.3       0      M_A    0.0000
      3 O          50.0894  136.5523   19.9565 O.3       0      M_A    0.0000
      4 H          49.8902  136.6334   17.0160 H         0      M_A    0.0000
      5 H          48.5394  136.3592   18.1258 H         0      M_A    0.0000
      6 H          51.1460  137.7671   18.6438 H         0      M_A    0.0000
      7 H          49.6750  138.4945   19.3480 H         0      M_A    0.0000
      8 C          48.8351  136.5170   20.6032 C.3       1      M_A    0.0000
      9 C          48.5781  135.1951   21.3158 C.3       1      M_A    0.0000
     10 O          47.2875  134.7162   20.9403 O.3       1      M_A    0.0000
     11 H          48.0489  136.7057   19.8633 H         1      M_A    0.0000
     12 H          48.8041  137.3309   21.3364 H         1      M_A    0.0000
     13 H          49.3440  134.4493   21.0642 H         1      M_A    0.0000
     14 H          48.6088  135.3808   22.3986 H         1      M_A    0.0000
     15 C          46.8770  133.6673   21.7912 C.3       2      M_A    0.0000
     16 C          47.8142  132.4671   21.7390 C.3       2      M_A    0.0000
     17 O          47.0527  131.2818   21.9652 O.3       2      M_A    0.0000
     18 H          45.8604  133.3642   21.5159 H         2      M_A    0.0000
     19 H          46.8436  134.0510   22.8171 H         2      M_A    0.0000
     20 H          48.3301  132.4040   20.7716 H         2      M_A    0.0000
     21 H          48.5653  132.5874   22.5323 H         2      M_A    0.0000
     22 C          46.4102  130.8671   20.7787 C.3       3      M_A    0.0000
     23 C          45.5138  129.6531   20.9890 C.3       3      M_A    0.0000
     24 O          45.7853  128.7005   19.9620 O.3       3      M_A    0.0000
     25 H          47.1711  130.6473   20.0212 H         3      M_A    0.0000
     26 H          45.8029  131.7006   20.4081 H         3      M_A    0.0000
     27 H          45.6788  129.2000   21.9757 H         3      M_A    0.0000
     28 H          44.4686  129.9868   20.9243 H         3      M_A    0.0000
     29 C          46.9114  127.9163   20.2934 C.3       4      M_A    0.0000
     30 C          47.4949  127.1872   19.0895 C.3       4      M_A    0.0000
     31 O          47.6274  125.8037   19.4125 O.3       4      M_A    0.0000
     32 H          46.6266  127.1960   21.0688 H         4      M_A    0.0000
     33 H          47.6764  128.5765   20.7174 H         4      M_A    0.0000
     34 H          46.8589  127.3071   18.2022 H         4      M_A    0.0000
     35 H          48.4829  127.6189   18.8764 H         4      M_A    0.0000
     36 C          48.4814  125.1560   18.4939 C.3       5      M_A    0.0000
     37 C          48.0255  123.7399   18.1651 C.3       5      M_A    0.0000
     38 O          49.0772  122.8330   18.4926 O.3       5      M_A    0.0000
     39 H          49.4973  125.1393   18.9047 H         5      M_A    0.0000
     40 H          48.5051  125.7476   17.5718 H         5      M_A    0.0000
     41 H          47.1142  123.4745   18.7176 H         5      M_A    0.0000
     42 H          47.8114  123.6929   17.0881 H         5      M_A    0.0000
     43 C          48.5668  121.5359   18.7153 C.3       6      M_A    0.0000
     44 C          48.9989  120.5422   17.6441 C.3       6      M_A    0.0000
     45 O          48.2283  119.3500   17.7884 O.3       6      M_A    0.0000
     46 H          47.4731  121.5880   18.7621 H         6      M_A    0.0000
     47 H          48.9254  121.1889   19.6909 H         6      M_A    0.0000
     48 H          48.8651  120.9570   16.6361 H         6      M_A    0.0000
     49 H          50.0646  120.3206   17.7958 H         6      M_A    0.0000
     50 C          48.3367  118.8410   19.1006 C.3       7      M_A    0.0000
     51 C          48.6094  117.3423   19.1292 C.3       7      M_A    0.0000
     52 O          47.3695  116.6547   19.2899 O.3       7      M_A    0.0000
     53 H          47.4135  119.0669   19.6463 H         7      M_A    0.0000
     54 H          49.1575  119.3638   19.6046 H         7      M_A    0.0000
     55 H          49.1081  117.0087   18.2094 H         7      M_A    0.0000
     56 H          49.2681  117.1326   19.9836 H         7      M_A    0.0000
     57 C          47.5819  115.3535   19.7943 C.3       8      M_A    0.0000
     58 C          48.2624  114.4359   18.7861 C.3       8      M_A    0.0000
     59 O          47.5882  113.1784   18.7840 O.3       8      M_A    0.0000
     60 H          46.6185  114.9296   20.0997 H         8      M_A    0.0000
     61 H          48.2100  115.4307   20.6890 H         8      M_A    0.0000
     62 H          48.2507  114.8708   17.7777 H         8      M_A    0.0000
     63 H          49.3070  114.3010   19.0999 H         8      M_A    0.0000
     64 C          47.1224  112.8594   20.0778 C.3       9      M_A    0.0000
     65 C          47.0770  111.3580   20.3326 C.3       9      M_A    0.0000
     66 O          45.7326  110.9072   20.1734 O.3       9      M_A    0.0000
     67 H          46.1261  113.2953   20.2138 H         9      M_A    0.0000
     68 H          47.7924  113.3264   20.8084 H         9      M_A    0.0000
     69 H          47.7397  110.8152   19.6454 H         9      M_A    0.0000
     70 H          47.4135  111.1776   21.3633 H         9      M_A    0.0000
     71 C          45.6186  109.5438   20.5208 C.3      10      M_A    0.0000
     72 C          46.5015  108.6434   19.6657 C.3      10      M_A    0.0000
     73 O          46.5280  107.3414   20.2486 O.3      10      M_A    0.0000
     74 H          44.5695  109.2406   20.4287 H        10      M_A    0.0000
     75 H          45.9060  109.4325   21.5724 H        10      M_A    0.0000
     76 H          46.1329  108.5858   18.6327 H        10      M_A    0.0000
     77 H          47.5142  109.0705   19.6555 H        10      M_A    0.0000
     78 C          45.4266  106.5753   19.8097 C.3      11      M_A    0.0000
     79 C          45.1722  105.3555   20.6865 C.3      11      M_A    0.0000
     80 O          45.3997  104.1794   19.9114 O.3      11      M_A    0.0000
     81 H          45.6006  106.2649   18.7732 H        11      M_A    0.0000
     82 H          44.5373  107.2156   19.8205 H        11      M_A    0.0000
     83 H          45.8237  105.3553   21.5706 H        11      M_A    0.0000
     84 H          44.1254  105.3885   21.0197 H        11      M_A    0.0000
     85 C          45.7002  103.0815   20.7463 C.3      12      M_A    0.0000
     86 C          44.9906  101.8039   20.3156 C.3      12      M_A    0.0000
     87 O          44.6959  101.0302   21.4777 O.3      12      M_A    0.0000
     88 H          45.4283  103.3347   21.7773 H        12      M_A    0.0000
     89 H          46.7832  102.9161   20.7189 H        12      M_A    0.0000
     90 H          44.0656  102.0255   19.7667 H        12      M_A    0.0000
     91 H          45.6678  101.2449   19.6547 H        12      M_A    0.0000
     92 C          43.6205  100.1494   21.2317 C.3      13      M_A    0.0000
     93 C          43.5682   98.9941   22.2237 C.3      13      M_A    0.0000
     94 O          43.2193   97.8026   21.5205 O.3      13      M_A    0.0000
     95 H          43.7037   99.7646   20.2089 H        13      M_A    0.0000
     96 H          42.6875  100.7203   21.2976 H        13      M_A    0.0000
     97 H          44.5313   98.8613   22.7345 H        13      M_A    0.0000
     98 H          42.7996   99.2251   22.9746 H        13      M_A    0.0000
     99 C          42.4123   96.9674   22.3228 C.3      14      M_A    0.0000
    100 C          43.2052   95.8537   22.9955 C.3      14      M_A    0.0000
    101 O          42.3344   94.7472   23.2263 O.3      14      M_A    0.0000
    102 H          41.6156   96.5414   21.7024 H        14      M_A    0.0000
    103 H          41.9388   97.5858   23.0938 H        14      M_A    0.0000
    104 H          44.0571   95.5396   22.3776 H        14      M_A    0.0000
    105 H          43.5859   96.2374   23.9524 H        14      M_A    0.0000
    106 C          42.1009   94.0372   22.0288 C.3      15      M_A    0.0000
    107 C          40.7320   93.3690   21.9989 C.3      15      M_A    0.0000
    108 O          40.3086   93.2538   20.6412 O.3      15      M_A    0.0000
    109 H          42.8896   93.2870   21.9014 H        15      M_A    0.0000
    110 H          42.1737   94.7417   21.1925 H        15      M_A    0.0000
    111 H          40.7605   92.3771   22.4696 H        15      M_A    0.0000
    112 H          40.0309   94.0046   22.5578 H        15      M_A    0.0000
    113 C          38.9003   93.1998   20.5602 C.3      16      M_A    0.0000
    114 C          38.2897   92.2389   21.5728 C.3      16      M_A    0.0000
    115 O          36.9407   91.9706   21.1931 O.3      16      M_A    0.0000
    116 H          38.6143   92.9079   19.5433 H        16      M_A    0.0000
    117 H          38.5075   94.2068   20.7403 H        16      M_A    0.0000
    118 H          38.8586   91.3011   21.6281 H        16      M_A    0.0000
    119 H          38.3124   92.7241   22.5587 H        16      M_A    0.0000
    120 C          36.8979   91.0888   20.0917 C.3      17      M_A    0.0000
    121 C          35.5393   91.0748   19.4022 C.3      17      M_A    0.0000
    122 O          34.6922   90.1473   20.0791 O.3      17      M_A    0.0000
    123 H          37.1575   90.0805   20.4339 H        17      M_A    0.0000
    124 H          37.6617   91.4025   19.3712 H        17      M_A    0.0000
    125 H          35.0804   92.0725   19.4019 H        17      M_A    0.0000
    126 H          35.6893   90.7551   18.3614 H        17      M_A    0.0000
    127 C          33.7434   90.8259   20.8741 C.3      18      M_A    0.0000
    128 C          32.8803   89.8778   21.6972 C.3      18      M_A    0.0000
    129 O          31.7703   90.6064   22.2195 O.3      18      M_A    0.0000
    130 H          33.1120   91.4426   20.2244 H        18      M_A    0.0000
    131 H          34.2816   91.4989   21.5511 H        18      M_A    0.0000
    132 H          32.5248   89.0331   21.0921 H        18      M_A    0.0000
    133 H          33.4942   89.4878   22.5212 H        18      M_A    0.0000
    134 C          30.7348   89.7288   22.6072 C.3      19      M_A    0.0000
    135 C          29.9661   90.2279   23.8243 C.3      19      M_A    0.0000
    136 O          29.7408   89.1286   24.7056 O.3      19      M_A    0.0000
    137 H          31.1642   88.7414   22.8112 H        19      M_A    0.0000
    138 H          30.0418   89.6227   21.7649 H        19      M_A    0.0000
    139 H          30.5157   91.0224   24.3466 H        19      M_A    0.0000
    140 H          29.0053   90.6332   23.4771 H        19      M_A    0.0000
    141 C          28.5287   89.2935   25.4100 C.3      20      M_A    0.0000
    142 C          28.7421   89.5307   26.8998 C.3      20      M_A    0.0000
    143 O          27.9958   88.5578   27.6295 O.3      20      M_A    0.0000
    144 H          27.9046   88.4061   25.2550 H        20      M_A    0.0000
    145 H          27.9980   90.1521   24.9832 H        20      M_A    0.0000
    146 H          29.8054   89.4671   27.1669 H        20      M_A    0.0000
    147 H          28.3779   90.5396   27.1392 H        20      M_A    0.0000
    148 C          28.2603   88.6597   29.0124 C.3      21      M_A    0.0000
    149 C          27.7428   87.4623   29.7997 C.3      21      M_A    0.0000
    150 O          27.7469   87.7913   31.1881 O.3      21      M_A    0.0000
    151 H          27.8106   89.5839   29.3926 H        21      M_A    0.0000
    152 H          29.3449   88.7365   29.1494 H        21      M_A    0.0000
    153 H          26.7294   87.1824   29.4823 H        21      M_A    0.0000
    154 H          28.4176   86.6151   29.6130 H        21      M_A    0.0000
    155 C          27.5710   86.6334   31.9761 C.3      22      M_A    0.0000
    156 C          28.7467   86.3736   32.9098 C.3      22      M_A    0.0000
    157 O          28.8238   84.9727   33.1695 O.3      22      M_A    0.0000
    158 H          27.4180   85.7734   31.3142 H        22      M_A    0.0000
    159 H          26.6609   86.7598   32.5733 H        22      M_A    0.0000
    160 H          29.6902   86.7278   32.4733 H        22      M_A    0.0000
    161 H          28.5644   86.9192   33.8462 H        22      M_A    0.0000
    162 C          29.8387   84.6944   34.1103 C.3      23      M_A    0.0000
    163 C          30.4212   83.2957   33.9502 C.3      23      M_A    0.0000
    164 O          30.9613   82.8787   35.2034 O.3      23      M_A    0.0000
    165 H          29.4310   84.8198   35.1198 H        23      M_A    0.0000
    166 H          30.6385   85.4322   33.9805 H        23      M_A    0.0000
    167 H          29.6589   82.5809   33.6126 H        23      M_A    0.0000
    168 H          31.2187   83.3436   33.1955 H        23      M_A    0.0000
    169 C          29.9567   82.3095   36.0155 C.3      24      M_A    0.0000
    170 C          30.3678   82.2151   37.4796 C.3      24      M_A    0.0000
    171 O          30.5369   80.8397   37.8196 O.3      24      M_A    0.0000
    172 H          29.7088   81.3146   35.6285 H        24      M_A    0.0000
    173 H          29.0578   82.9312   35.9355 H        24      M_A    0.0000
    174 H          31.2979   82.7670   37.6705 H        24      M_A    0.0000
    175 H          29.5650   82.6558   38.0874 H        24      M_A    0.0000
    176 C          30.7494   80.6908   39.2071 C.3      25      M_A    0.0000
    177 C          31.5227   79.4238   39.5508 C.3      25      M_A    0.0000
    178 O          30.6346   78.5030   40.1827 O.3      25      M_A    0.0000
    179 H          29.7792   80.6904   39.7168 H        25      M_A    0.0000
    180 H          31.3120   81.5612   39.5633 H        25      M_A    0.0000
    181 H          31.9621   78.9675   38.6537 H        25      M_A    0.0000
    182 H          32.3334   79.6967   40.2409 H        25      M_A    0.0000
    183 C          31.1814   77.2015   40.1821 C.3      26      M_A    0.0000
    184 C          30.2161   76.1581   40.7307 C.3      26      M_A    0.0000
    185 O          30.9038   75.3593   41.6924 O.3      26      M_A    0.0000
    186 H          32.1066   77.2050   40.7695 H        26      M_A    0.0000
    187 H          31.4431   76.9398   39.1506 H        26      M_A    0.0000
    188 H          29.3376   76.6290   41.1918 H        26      M_A    0.0000
    189 H          29.8811   75.5308   39.8927 H        26      M_A    0.0000
    190 C          30.1751   74.1848   41.9787 C.3      27      M_A    0.0000
    191 C          29.1287   74.3926   43.0665 C.3      27      M_A    0.0000
    192 O          29.6913   74.0123   44.3213 O.3      27      M_A    0.0000
    193 H          30.8757   73.3959   42.2753 H        27      M_A    0.0000
    194 H          29.6759   73.8581   41.0595 H        27      M_A    0.0000
    195 H          28.7943   75.4380   43.1055 H        27      M_A    0.0000
    196 H          28.2648   73.7543   42.8338 H        27      M_A    0.0000
    197 C          29.5087   75.0321   45.2801 C.3      28      M_A    0.0000
    198 C          29.7404   76.4251   44.7081 C.3      28      M_A    0.0000
    199 O          29.5834   77.3816   45.7551 O.3      28      M_A    0.0000
    200 H          30.1865   74.8528   46.1225 H        28      M_A    0.0000
    201 H          28.4825   74.9669   45.6591 H        28      M_A    0.0000
    202 H          30.7409   76.5141   44.2641 H        28      M_A    0.0000
    203 H          28.9899   76.6002   43.9245 H        28      M_A    0.0000
    204 C          28.2243   77.7272   45.9162 C.3      29      M_A    0.0000
    205 C          27.9225   79.1514   45.4669 C.3      29      M_A    0.0000
    206 O          27.6325   79.9427   46.6183 O.3      29      M_A    0.0000
    207 H          27.9473   77.5971   46.9686 H        29      M_A    0.0000
    208 H          27.6206   77.0297   45.3246 H        29      M_A    0.0000
    209 H          28.7679   79.5847   44.9159 H        29      M_A    0.0000
    210 H          27.0473   79.1204   44.8029 H        29      M_A    0.0000
    211 C          28.8153   80.2468   47.3261 C.3      30      M_A    0.0000
    212 C          28.9230   81.7239   47.6839 C.3      30      M_A    0.0000
    213 O          29.4394   82.4311   46.5573 O.3      30      M_A    0.0000
    214 H          29.6781   79.9409   46.7236 H        30      M_A    0.0000
    215 H          28.8259   79.6536   48.2475 H        30      M_A    0.0000
    216 H          27.9477   82.1377   47.9731 H        30      M_A    0.0000
    217 H          29.6127   81.8185   48.5344 H        30      M_A    0.0000
    218 C          28.4816   83.3384   46.0554 C.3      31      M_A    0.0000
    219 C          28.8365   84.7906   46.3499 C.3      31      M_A    0.0000
    220 O          27.6453   85.4889   46.7095 O.3      31      M_A    0.0000
    221 H          27.5030   83.0950   46.4845 H        31      M_A    0.0000
    222 H          28.4130   83.1996   44.9705 H        31      M_A    0.0000
    223 H          29.5755   84.8658   47.1588 H        31      M_A    0.0000
    224 H          29.2664   85.2274   45.4375 H        31      M_A    0.0000
    225 C          27.6832   85.8749   48.0668 C.3      32      M_A    0.0000
    226 C          26.3265   86.3353   48.5852 C.3      32      M_A    0.0000
    227 O          26.3806   87.7412   48.8228 O.3      32      M_A    0.0000
    228 H          28.4241   86.6734   48.1881 H        32      M_A    0.0000
    229 H          28.0198   85.0160   48.6584 H        32      M_A    0.0000
    230 H          25.5257   86.1052   47.8698 H        32      M_A    0.0000
    231 H          26.1233   85.8036   49.5253 H        32      M_A    0.0000
    232 C          26.2523   88.4574   47.6132 C.3      33      M_A    0.0000
    233 C          26.3692   89.9641   47.8068 C.3      33      M_A    0.0000
    234 O          25.0609   90.5058   47.9823 O.3      33      M_A    0.0000
    235 H          25.2881   88.2098   47.1547 H        33      M_A    0.0000
    236 H          27.0412   88.1219   46.9305 H        33      M_A    0.0000
    237 H          26.9971   90.2086   48.6740 H        33      M_A    0.0000
    238 H          26.8328   90.3880   46.9049 H        33      M_A    0.0000
    239 C          24.5703   90.2174   49.2741 C.3      34      M_A    0.0000
    240 C          24.2736   91.4732   50.0843 C.3      34      M_A    0.0000
    241 O          25.1106   91.4806   51.2398 O.3      34      M_A    0.0000
    242 H          25.3013   89.5931   49.8003 H        34      M_A    0.0000
    243 H          23.6489   89.6335   49.1686 H        34      M_A    0.0000
    244 H          24.4435   92.3816   49.4909 H        34      M_A    0.0000
    245 H          23.2174   91.4415   50.3864 H        34      M_A    0.0000
    246 C          26.2818   90.7259   51.0129 C.3      35      M_A    0.0000
    247 C          25.9909   89.2531   50.7530 C.3      35      M_A    0.0000
    248 O          25.6202   88.6355   51.9847 O.3      35      M_A    0.0000
    249 H          26.9457   90.8321   51.8784 H        35      M_A    0.0000
    250 H          26.7986   91.1476   50.1434 H        35      M_A    0.0000
    251 H          25.1890   89.1281   50.0131 H        35      M_A    0.0000
    252 H          26.9073   88.7893   50.3617 H        35      M_A    0.0000
    253 C          25.0270   89.5748   52.8556 C.3      36      M_A    0.0000
    254 C          26.0259   90.5934   53.3904 C.3      36      M_A    0.0000
    255 O          25.6655   90.9280   54.7297 O.3      36      M_A    0.0000
    256 H          24.5535   89.0391   53.6861 H        36      M_A    0.0000
    257 H          24.2382   90.1013   52.3064 H        36      M_A    0.0000
    258 H          27.0511   90.2006   53.3635 H        36      M_A    0.0000
    259 H          25.9740   91.4876   52.7534 H        36      M_A    0.0000
    260 H          26.1550   91.7212   55.0326 H        36      M_A    0.0000
    261 H          48.7048  137.9251   17.3149 H         0      M_A    0.0000
@<TRIPOS>BOND
     1     1     2      1
     2     1     4      1
     3     1     5      1
     4     1   261      1
     5     2     3      1
     6     2     6      1
     7     2     7      1
     8     3     8      1
     9     8     9      1
    10     8    11      1
    11     8    12      1
    12     9    10      1
    13     9    13      1
    14     9    14      1
    15    10    15      1
    16    15    16      1
    17    15    18      1
    18    15    19      1
    19    16    17      1
    20    16    20      1
    21    16    21      1
    22    17    22      1
    23    22    23      1
    24    22    25      1
    25    22    26      1
    26    23    24      1
    27    23    27      1
    28    23    28      1
    29    24    29      1
    30    29    30      1
    31    29    32      1
    32    29    33      1
    33    30    31      1
    34    30    34      1
    35    30    35      1
    36    31    36      1
    37    36    37      1
    38    36    39      1
    39    36    40      1
    40    37    38      1
    41    37    41      1
    42    37    42      1
    43    38    43      1
    44    43    44      1
    45    43    46      1
    46    43    47      1
    47    44    45      1
    48    44    48      1
    49    44    49      1
    50    45    50      1
    51    50    51      1
    52    50    53      1
    53    50    54      1
    54    51    52      1
    55    51    55      1
    56    51    56      1
    57    52    57      1
    58    57    58      1
    59    57    60      1
    60    57    61      1
    61    58    59      1
    62    58    62      1
    63    58    63      1
    64    59    64      1
    65    64    65      1
    66    64    67      1
    67    64    68      1
    68    65    66      1
    69    65    69      1
    70    65    70      1
    71    66    71      1
    72    71    72      1
    73    71    74      1
    74    71    75      1
    75    72    73      1
    76    72    76      1
    77    72    77      1
    78    73    78      1
    79    78    79      1
    80    78    81      1
    81    78    82      1
    82    79    80      1
    83    79    83      1
    84    79    84      1
    85    80    85      1
    86    85    86      1
    87    85    88      1
    88    85    89      1
    89    86    87      1
    90    86    90      1
    91    86    91      1
    92    87    92      1
    93    92    93      1
    94    92    95      1
    95    92    96      1
    96    93    94      1
    97    93    97      1
    98    93    98      1
    99    94    99      1
   100    99   100      1
   101    99   102      1
   102    99   103      1
   103   100   101      1
   104   100   104      1
   105   100   105      1
   106   101   106      1
   107   106   107      1
   108   106   109      1
   109   106   110      1
   110   107   108      1
   111   107   111      1
   112   107   112      1
   113   108   113      1
   114   113   114      1
   115   113   116      1
   116   113   117      1
   117   114   115      1
   118   114   118      1
   119   114   119      1
   120   115   120      1
   121   120   121      1
   122   120   123      1
   123   120   124      1
   124   121   122      1
   125   121   125      1
   126   121   126      1
   127   122   127      1
   128   127   128      1
   129   127   130      1
   130   127   131      1
   131   128   129      1
   132   128   132      1
   133   128   133      1
   134   129   134      1
   135   134   135      1
   136   134   137      1
   137   134   138      1
   138   135   136      1
   139   135   139      1
   140   135   140      1
   141   136   141      1
   142   141   142      1
   143   141   144      1
   144   141   145      1
   145   142   143      1
   146   142   146      1
   147   142   147      1
   148   143   148      1
   149   148   149      1
   150   148   151      1
   151   148   152      1
   152   149   150      1
   153   149   153      1
   154   149   154      1
   155   150   155      1
   156   155   156      1
   157   155   158      1
   158   155   159      1
   159   156   157      1
   160   156   160      1
   161   156   161      1
   162   157   162      1
   163   162   163      1
   164   162   165      1
   165   162   166      1
   166   163   164      1
   167   163   167      1
   168   163   168      1
   169   164   169      1
   170   169   170      1
   171   169   172      1
   172   169   173      1
   173   170   171      1
   174   170   174      1
   175   170   175      1
   176   171   176      1
   177   176   177      1
   178   176   179      1
   179   176   180      1
   180   177   178      1
   181   177   181      1
   182   177   182      1
   183   178   183      1
   184   183   184      1
   185   183   186      1
   186   183   187      1
   187   184   185      1
   188   184   188      1
   189   184   189      1
   190   185   190      1
   191   190   191      1
   192   190   193      1
   193   190   194      1
   194   191   192      1
   195   191   195      1
   196   191   196      1
   197   192   197      1
   198   197   198      1
   199   197   200      1
   200   197   201      1
   201   198   199      1
   202   198   202      1
   203   198   203      1
   204   199   204      1
   205   204   205      1
   206   204   207      1
   207   204   208      1
   208   205   206      1
   209   205   209      1
   210   205   210      1
   211   206   211      1
   212   211   212      1
   213   211   214      1
   214   211   215      1
   215   212   213      1
   216   212   216      1
   217   212   217      1
   218   213   218      1
   219   218   219      1
   220   218   221      1
   221   218   222      1
   222   219   220      1
   223   219   223      1
   224   219   224      1
   225   220   225      1
   226   225   226      1
   227   225   228      1
   228   225   229      1
   229   226   227      1
   230   226   230      1
   231   226   231      1
   232   227   232      1
   233   232   233      1
   234   232   235      1
   235   232   236      1
   236   233   234      1
   237   233   237      1
   238   233   238      1
   239   234   239      1
   240   239   240      1
   241   239   242      1
   242   239   243      1
   243   240   241      1
   244   240   244      1
   245   240   245      1
   246   241   246      1
   247   246   247      1
   248   246   249      1
   249   246   250      1
   250   247   248      1
   251   247   251      1
   252   247   252      1
   253   248   253      1
   254   253   254      1
   255   253   256      1
   256   253   257      1
   257   254   255      1
   258   254   258      1
   259   254   259      1
   260   255   260      1
