###
### Created by PolyChef-cpp17 on Mon May 12 10:39:12 2025
###

@<TRIPOS>MOLECULE
NO_INFO
373 372 1 0 0
SMALL
USER_CHARGES


@<TRIPOS>ATOM
      1 C          91.1643  144.7597   96.7044 C.3       0      M_A    0.0000
      2 C          91.6340  143.3769   96.2634 C.3       0      M_A    0.0000
      3 O          90.6710  142.7762   95.3987 O.3       0      M_A    0.0000
      4 H          90.3983  145.1276   96.0111 H         0      M_A    0.0000
      5 H          90.6804  144.7024   97.6860 H         0      M_A    0.0000
      6 H          92.5592  143.4651   95.6797 H         0      M_A    0.0000
      7 H          91.8713  142.7294   97.1199 H         0      M_A    0.0000
      8 C          89.3582  143.1927   95.7042 C.3       1      M_A    0.0000
      9 C          88.3694  142.0320   95.6566 C.3       1      M_A    0.0000
     10 O          87.3963  142.2484   94.6358 O.3       1      M_A    0.0000
     11 H          89.0488  143.9703   94.9955 H         1      M_A    0.0000
     12 H          89.3451  143.6637   96.6937 H         1      M_A    0.0000
     13 H          88.8936  141.1052   95.3906 H         1      M_A    0.0000
     14 H          87.8998  141.8500   96.6341 H         1      M_A    0.0000
     15 C          86.5073  141.1594   94.5178 C.3       2      M_A    0.0000
     16 C          86.9090  140.2195   93.3854 C.3       2      M_A    0.0000
     17 O          85.7747  139.8920   92.5840 O.3       2      M_A    0.0000
     18 H          85.4922  141.5356   94.3425 H         2      M_A    0.0000
     19 H          86.4675  140.6153   95.4683 H         2      M_A    0.0000
     20 H          87.6223  140.7208   92.7189 H         2      M_A    0.0000
     21 H          87.4174  139.3185   93.7581 H         2      M_A    0.0000
     22 C          85.9658  138.6913   91.8684 C.3       3      M_A    0.0000
     23 C          84.7021  138.2653   91.1276 C.3       3      M_A    0.0000
     24 O          84.0560  137.1972   91.8186 O.3       3      M_A    0.0000
     25 H          86.2717  137.8989   92.5621 H         3      M_A    0.0000
     26 H          86.7969  138.8136   91.1645 H         3      M_A    0.0000
     27 H          83.9847  139.0955   91.1045 H         3      M_A    0.0000
     28 H          84.9066  138.0063   90.0787 H         3      M_A    0.0000
     29 C          82.7896  136.9058   91.2694 C.3       4      M_A    0.0000
     30 C          81.7784  138.0109   91.5581 C.3       4      M_A    0.0000
     31 O          80.5697  137.7810   90.8356 O.3       4      M_A    0.0000
     32 H          82.4252  135.9560   91.6789 H         4      M_A    0.0000
     33 H          82.8866  136.7512   90.1888 H         4      M_A    0.0000
     34 H          81.5078  138.0013   92.6217 H         4      M_A    0.0000
     35 H          82.1901  139.0101   91.3546 H         4      M_A    0.0000
     36 C          80.7800  137.7971   89.4407 C.3       5      M_A    0.0000
     37 C          81.4184  139.1033   88.9785 C.3       5      M_A    0.0000
     38 O          80.4257  140.1173   88.8296 O.3       5      M_A    0.0000
     39 H          79.8223  137.6524   88.9265 H         5      M_A    0.0000
     40 H          81.4074  136.9449   89.1557 H         5      M_A    0.0000
     41 H          82.1185  139.4675   89.7412 H         5      M_A    0.0000
     42 H          82.0067  138.9718   88.0588 H         5      M_A    0.0000
     43 C          80.8971  141.3796   89.2477 C.3       6      M_A    0.0000
     44 C          79.7540  142.3094   89.6427 C.3       6      M_A    0.0000
     45 O          79.9836  143.6236   89.1365 O.3       6      M_A    0.0000
     46 H          81.4814  141.8359   88.4396 H         6      M_A    0.0000
     47 H          81.5907  141.2513   90.0864 H         6      M_A    0.0000
     48 H          78.8169  141.9637   89.1880 H         6      M_A    0.0000
     49 H          79.5845  142.3161   90.7292 H         6      M_A    0.0000
     50 C          78.9478  144.5125   89.4931 C.3       7      M_A    0.0000
     51 C          77.6235  144.1324   88.8381 C.3       7      M_A    0.0000
     52 O          76.8797  145.3031   88.5032 O.3       7      M_A    0.0000
     53 H          79.2257  145.5318   89.1991 H         7      M_A    0.0000
     54 H          78.8416  144.5314   90.5837 H         7      M_A    0.0000
     55 H          77.8113  143.6063   87.8935 H         7      M_A    0.0000
     56 H          77.0374  143.4430   89.4628 H         7      M_A    0.0000
     57 C          77.5113  146.0553   87.4905 C.3       8      M_A    0.0000
     58 C          77.5201  147.5462   87.8133 C.3       8      M_A    0.0000
     59 O          77.0796  148.3023   86.6863 O.3       8      M_A    0.0000
     60 H          76.9960  145.8872   86.5372 H         8      M_A    0.0000
     61 H          78.5349  145.6904   87.3487 H         8      M_A    0.0000
     62 H          76.8094  147.7576   88.6225 H         8      M_A    0.0000
     63 H          78.5032  147.8849   88.1712 H         8      M_A    0.0000
     64 C          78.1530  148.9396   86.0290 C.3       9      M_A    0.0000
     65 C          77.6678  149.8712   84.9226 C.3       9      M_A    0.0000
     66 O          78.4856  149.7335   83.7615 O.3       9      M_A    0.0000
     67 H          78.8223  148.1811   85.6055 H         9      M_A    0.0000
     68 H          78.7510  149.4955   86.7599 H         9      M_A    0.0000
     69 H          76.6512  149.5918   84.6180 H         9      M_A    0.0000
     70 H          77.6118  150.9166   85.2589 H         9      M_A    0.0000
     71 C          78.5243  150.9218   83.0021 C.3      10      M_A    0.0000
     72 C          78.4607  150.6399   81.5042 C.3      10      M_A    0.0000
     73 O          79.2051  151.6192   80.7812 O.3      10      M_A    0.0000
     74 H          79.4434  151.4728   83.2351 H        10      M_A    0.0000
     75 H          77.6968  151.5746   83.3022 H        10      M_A    0.0000
     76 H          78.9309  149.6727   81.2856 H        10      M_A    0.0000
     77 H          77.4250  150.5672   81.1419 H        10      M_A    0.0000
     78 C          79.6114  151.1428   79.5170 C.3      11      M_A    0.0000
     79 C          78.6650  151.5954   78.4093 C.3      11      M_A    0.0000
     80 O          78.9457  150.8958   77.1979 O.3      11      M_A    0.0000
     81 H          79.6571  150.0473   79.5384 H        11      M_A    0.0000
     82 H          80.6319  151.4834   79.3086 H        11      M_A    0.0000
     83 H          77.6303  151.3453   78.6765 H        11      M_A    0.0000
     84 H          78.6905  152.6852   78.2649 H        11      M_A    0.0000
     85 C          80.3063  150.9931   76.8380 C.3      12      M_A    0.0000
     86 C          80.6336  150.1348   75.6200 C.3      12      M_A    0.0000
     87 O          82.0328  149.8609   75.5654 O.3      12      M_A    0.0000
     88 H          80.9300  150.6841   77.6855 H        12      M_A    0.0000
     89 H          80.5590  152.0417   76.6439 H        12      M_A    0.0000
     90 H          80.1325  149.1619   75.7029 H        12      M_A    0.0000
     91 H          80.2713  150.5887   74.6863 H        12      M_A    0.0000
     92 C          82.5505  150.0270   74.2636 C.3      13      M_A    0.0000
     93 C          83.7263  149.0923   73.9972 C.3      13      M_A    0.0000
     94 O          84.9054  149.8438   73.7131 O.3      13      M_A    0.0000
     95 H          82.8685  151.0677   74.1284 H        13      M_A    0.0000
     96 H          81.7549  149.8568   73.5294 H        13      M_A    0.0000
     97 H          83.9462  148.5028   74.8964 H        13      M_A    0.0000
     98 H          83.5045  148.3672   73.2009 H        13      M_A    0.0000
     99 C          85.9965  149.0088   73.3930 C.3      14      M_A    0.0000
    100 C          87.3066  149.5441   73.9623 C.3      14      M_A    0.0000
    101 O          88.4149  149.0471   73.2135 O.3      14      M_A    0.0000
    102 H          86.0777  148.9178   72.3031 H        14      M_A    0.0000
    103 H          85.8043  147.9967   73.7668 H        14      M_A    0.0000
    104 H          87.3364  150.6371   73.8673 H        14      M_A    0.0000
    105 H          87.4099  149.3257   75.0350 H        14      M_A    0.0000
    106 C          89.5773  148.9374   74.0054 C.3      15      M_A    0.0000
    107 C          90.5914  147.9756   73.3940 C.3      15      M_A    0.0000
    108 O          91.6568  147.7270   74.3099 O.3      15      M_A    0.0000
    109 H          89.3023  148.5941   75.0099 H        15      M_A    0.0000
    110 H          90.0247  149.9291   74.1373 H        15      M_A    0.0000
    111 H          90.1171  147.0046   73.2026 H        15      M_A    0.0000
    112 H          90.9645  148.3322   72.4231 H        15      M_A    0.0000
    113 C          92.6731  148.7005   74.2105 C.3      16      M_A    0.0000
    114 C          93.4058  148.6212   72.8749 C.3      16      M_A    0.0000
    115 O          94.5024  147.7124   72.9617 O.3      16      M_A    0.0000
    116 H          93.3874  148.5660   75.0318 H        16      M_A    0.0000
    117 H          92.2392  149.6974   74.3482 H        16      M_A    0.0000
    118 H          92.7350  148.2214   72.1038 H        16      M_A    0.0000
    119 H          93.7257  149.6119   72.5206 H        16      M_A    0.0000
    120 C          95.2411  147.6639   71.7607 C.3      17      M_A    0.0000
    121 C          95.2667  146.2589   71.1669 C.3      17      M_A    0.0000
    122 O          96.4322  146.0790   70.3637 O.3      17      M_A    0.0000
    123 H          96.2666  148.0031   71.9502 H        17      M_A    0.0000
    124 H          94.8165  148.3736   71.0415 H        17      M_A    0.0000
    125 H          95.3291  145.5146   71.9710 H        17      M_A    0.0000
    126 H          94.3480  146.0309   70.6074 H        17      M_A    0.0000
    127 C          96.2179  146.4823   69.0289 C.3      18      M_A    0.0000
    128 C          97.3750  146.0768   68.1212 C.3      18      M_A    0.0000
    129 O          97.8381  147.2001   67.3730 O.3      18      M_A    0.0000
    130 H          96.0855  147.5704   68.9942 H        18      M_A    0.0000
    131 H          95.2785  146.0522   68.6634 H        18      M_A    0.0000
    132 H          98.2251  145.7393   68.7276 H        18      M_A    0.0000
    133 H          97.1099  145.2337   67.4669 H        18      M_A    0.0000
    134 C          98.8263  146.8352   66.4346 C.3      19      M_A    0.0000
    135 C          99.5029  145.5193   66.8061 C.3      19      M_A    0.0000
    136 O         100.8490  145.5007   66.3333 O.3      19      M_A    0.0000
    137 H          99.5780  147.6310   66.3696 H        19      M_A    0.0000
    138 H          98.3756  146.7636   65.4382 H        19      M_A    0.0000
    139 H          99.5588  145.4231   67.8979 H        19      M_A    0.0000
    140 H          98.9344  144.6483   66.4493 H        19      M_A    0.0000
    141 C         101.2520  144.2055   65.9457 C.3      20      M_A    0.0000
    142 C         102.4436  144.2433   64.9940 C.3      20      M_A    0.0000
    143 O         102.5597  143.0065   64.2921 O.3      20      M_A    0.0000
    144 H         100.4113  143.6916   65.4641 H        20      M_A    0.0000
    145 H         101.4951  143.6162   66.8371 H        20      M_A    0.0000
    146 H         102.2882  145.0168   64.2311 H        20      M_A    0.0000
    147 H         103.3772  144.5059   65.5124 H        20      M_A    0.0000
    148 C         103.0239  143.1925   62.9729 C.3      21      M_A    0.0000
    149 C         104.3826  142.5349   62.7517 C.3      21      M_A    0.0000
    150 O         105.1591  143.2952   61.8272 O.3      21      M_A    0.0000
    151 H         103.0945  144.2659   62.7598 H        21      M_A    0.0000
    152 H         102.2878  142.7923   62.2665 H        21      M_A    0.0000
    153 H         104.9489  142.5220   63.6917 H        21      M_A    0.0000
    154 H         104.2866  141.4860   62.4361 H        21      M_A    0.0000
    155 C         106.5375  143.2305   62.1205 C.3      22      M_A    0.0000
    156 C         107.3704  142.9525   60.8730 C.3      22      M_A    0.0000
    157 O         108.3970  142.0043   61.1608 O.3      22      M_A    0.0000
    158 H         106.7146  142.4449   62.8649 H        22      M_A    0.0000
    159 H         106.8558  144.1683   62.5898 H        22      M_A    0.0000
    160 H         106.7410  142.4987   60.0970 H        22      M_A    0.0000
    161 H         107.7797  143.8751   60.4365 H        22      M_A    0.0000
    162 C         109.5483  142.2214   60.3748 C.3      23      M_A    0.0000
    163 C         109.2002  142.4264   58.9037 C.3      23      M_A    0.0000
    164 O         109.4059  141.2198   58.1705 O.3      23      M_A    0.0000
    165 H         110.2260  141.3654   60.4777 H        23      M_A    0.0000
    166 H         110.0964  143.0883   60.7608 H        23      M_A    0.0000
    167 H         108.1350  142.6704   58.8022 H        23      M_A    0.0000
    168 H         109.7522  143.2692   58.4630 H        23      M_A    0.0000
    169 C         108.7857  141.2622   56.9040 C.3      24      M_A    0.0000
    170 C         109.1527  140.0512   56.0520 C.3      24      M_A    0.0000
    171 O         109.1061  140.3853   54.6656 O.3      24      M_A    0.0000
    172 H         109.0812  142.1818   56.3848 H        24      M_A    0.0000
    173 H         107.6989  141.3232   57.0310 H        24      M_A    0.0000
    174 H         110.1863  139.7469   56.2607 H        24      M_A    0.0000
    175 H         108.5231  139.1794   56.2816 H        24      M_A    0.0000
    176 C         109.9560  139.5617   53.8976 C.3      25      M_A    0.0000
    177 C         109.2540  138.2835   53.4497 C.3      25      M_A    0.0000
    178 O         110.2097  137.3139   53.0228 O.3      25      M_A    0.0000
    179 H         110.8455  139.3071   54.4864 H        25      M_A    0.0000
    180 H         110.3194  140.1212   53.0282 H        25      M_A    0.0000
    181 H         108.7179  137.8353   54.2960 H        25      M_A    0.0000
    182 H         108.4981  138.4780   52.6751 H        25      M_A    0.0000
    183 C         109.7678  136.6057   51.8855 C.3      26      M_A    0.0000
    184 C         110.3132  135.1812   51.8571 C.3      26      M_A    0.0000
    185 O         111.2209  135.0172   50.7685 O.3      26      M_A    0.0000
    186 H         110.0816  137.1390   50.9800 H        26      M_A    0.0000
    187 H         108.6722  136.5944   51.8647 H        26      M_A    0.0000
    188 H         110.8887  134.9832   52.7703 H        26      M_A    0.0000
    189 H         109.5086  134.4321   51.8321 H        26      M_A    0.0000
    190 C         112.0036  133.8518   50.9079 C.3      27      M_A    0.0000
    191 C         113.0563  134.0029   52.0016 C.3      27      M_A    0.0000
    192 O         114.3316  133.5727   51.5280 O.3      27      M_A    0.0000
    193 H         112.4934  133.6259   49.9530 H        27      M_A    0.0000
    194 H         111.3518  132.9972   51.1222 H        27      M_A    0.0000
    195 H         113.1682  135.0615   52.2687 H        27      M_A    0.0000
    196 H         112.7685  133.4813   52.9258 H        27      M_A    0.0000
    197 C         114.5401  133.9319   50.1797 C.3      28      M_A    0.0000
    198 C         115.8540  133.3746   49.6410 C.3      28      M_A    0.0000
    199 O         116.4565  134.3029   48.7403 O.3      28      M_A    0.0000
    200 H         114.5383  135.0248   50.0897 H        28      M_A    0.0000
    201 H         113.6990  133.5777   49.5728 H        28      M_A    0.0000
    202 H         116.5670  133.2373   50.4639 H        28      M_A    0.0000
    203 H         115.7237  132.3855   49.1786 H        28      M_A    0.0000
    204 C         117.7592  133.9069   48.3710 C.3      29      M_A    0.0000
    205 C         118.1432  134.4353   46.9924 C.3      29      M_A    0.0000
    206 O         119.3499  135.1929   47.0679 O.3      29      M_A    0.0000
    207 H         117.8223  132.8121   48.3772 H        29      M_A    0.0000
    208 H         118.4746  134.2547   49.1249 H        29      M_A    0.0000
    209 H         118.3481  133.5968   46.3146 H        29      M_A    0.0000
    210 H         117.3290  135.0122   46.5304 H        29      M_A    0.0000
    211 C         119.3302  136.3010   46.1950 C.3      30      M_A    0.0000
    212 C         118.8839  135.9085   44.7900 C.3      30      M_A    0.0000
    213 O         118.8080  137.0606   43.9516 O.3      30      M_A    0.0000
    214 H         120.3303  136.7489   46.1528 H        30      M_A    0.0000
    215 H         118.6698  137.0752   46.6019 H        30      M_A    0.0000
    216 H         119.6285  135.2441   44.3334 H        30      M_A    0.0000
    217 H         117.9372  135.3492   44.7993 H        30      M_A    0.0000
    218 C         118.2892  136.7497   42.6771 C.3      31      M_A    0.0000
    219 C         116.7795  136.9594   42.6126 C.3      31      M_A    0.0000
    220 O         116.2195  136.2171   41.5304 O.3      31      M_A    0.0000
    221 H         118.5278  135.7079   42.4312 H        31      M_A    0.0000
    222 H         118.7913  137.3613   41.9189 H        31      M_A    0.0000
    223 H         116.3094  136.5738   43.5262 H        31      M_A    0.0000
    224 H         116.5133  138.0248   42.5559 H        31      M_A    0.0000
    225 C         114.9106  135.7758   41.8176 C.3      32      M_A    0.0000
    226 C         113.8688  136.5033   40.9734 C.3      32      M_A    0.0000
    227 O         112.5635  136.3063   41.5149 O.3      32      M_A    0.0000
    228 H         114.6986  135.9335   42.8819 H        32      M_A    0.0000
    229 H         114.8455  134.6941   41.6539 H        32      M_A    0.0000
    230 H         114.0538  137.5847   41.0018 H        32      M_A    0.0000
    231 H         113.9184  136.2104   39.9147 H        32      M_A    0.0000
    232 C         111.7517  137.4495   41.3589 C.3      33      M_A    0.0000
    233 C         110.6586  137.2312   40.3175 C.3      33      M_A    0.0000
    234 O         110.2392  138.4788   39.7666 O.3      33      M_A    0.0000
    235 H         112.3761  138.3019   41.0651 H        33      M_A    0.0000
    236 H         111.3093  137.7183   42.3248 H        33      M_A    0.0000
    237 H         111.0528  136.6418   39.4798 H        33      M_A    0.0000
    238 H         109.8108  136.6602   40.7231 H        33      M_A    0.0000
    239 C         109.3696  138.3032   38.6697 C.3      34      M_A    0.0000
    240 C         108.6982  136.9335   38.6918 C.3      34      M_A    0.0000
    241 O         107.9771  136.7129   37.4805 O.3      34      M_A    0.0000
    242 H         109.9323  138.4233   37.7362 H        34      M_A    0.0000
    243 H         108.6144  139.0974   38.6712 H        34      M_A    0.0000
    244 H         109.4597  136.1450   38.7446 H        34      M_A    0.0000
    245 H         108.0578  136.8024   39.5760 H        34      M_A    0.0000
    246 C         106.6656  137.2284   37.5483 C.3      35      M_A    0.0000
    247 C         105.7541  136.5995   36.4991 C.3      35      M_A    0.0000
    248 O         104.4822  136.2890   37.0662 O.3      35      M_A    0.0000
    249 H         106.6942  138.3157   37.4083 H        35      M_A    0.0000
    250 H         106.2598  137.0640   38.5530 H        35      M_A    0.0000
    251 H         105.5638  137.3173   35.6910 H        35      M_A    0.0000
    252 H         106.2146  135.7197   36.0269 H        35      M_A    0.0000
    253 C         103.7075  135.4803   36.2082 C.3      36      M_A    0.0000
    254 C         104.3165  134.0926   36.0338 C.3      36      M_A    0.0000
    255 O         103.3546  133.1918   35.4868 O.3      36      M_A    0.0000
    256 H         103.6171  135.9691   35.2307 H        36      M_A    0.0000
    257 H         102.6877  135.4019   36.6018 H        36      M_A    0.0000
    258 H         105.1431  134.1351   35.3130 H        36      M_A    0.0000
    259 H         104.7453  133.7097   36.9712 H        36      M_A    0.0000
    260 C         103.9337  131.9543   35.1352 C.3      37      M_A    0.0000
    261 C         102.9846  130.7891   35.3972 C.3      37      M_A    0.0000
    262 O         103.4831  129.5957   34.7947 O.3      37      M_A    0.0000
    263 H         104.8599  131.8110   35.7048 H        37      M_A    0.0000
    264 H         104.2286  131.9754   34.0799 H        37      M_A    0.0000
    265 H         102.9271  130.5891   36.4748 H        37      M_A    0.0000
    266 H         101.9585  131.0117   35.0706 H        37      M_A    0.0000
    267 C         102.4434  128.7927   34.2804 C.3      38      M_A    0.0000
    268 C         101.3177  128.6054   35.2928 C.3      38      M_A    0.0000
    269 O         100.8902  127.2443   35.3160 O.3      38      M_A    0.0000
    270 H         102.8473  127.8146   33.9926 H        38      M_A    0.0000
    271 H         102.0560  129.2422   33.3591 H        38      M_A    0.0000
    272 H         101.6824  128.8307   36.3031 H        38      M_A    0.0000
    273 H         100.4788  129.2921   35.1085 H        38      M_A    0.0000
    274 C         101.4690  126.4938   34.2710 C.3      39      M_A    0.0000
    275 C         100.6641  125.2350   33.9635 C.3      39      M_A    0.0000
    276 O         101.5061  124.2312   33.3985 O.3      39      M_A    0.0000
    277 H         102.4944  126.2182   34.5455 H        39      M_A    0.0000
    278 H         101.5543  127.1196   33.3753 H        39      M_A    0.0000
    279 H         100.2622  124.8121   34.8930 H        39      M_A    0.0000
    280 H          99.7967  125.4468   33.3217 H        39      M_A    0.0000
    281 C         100.8584  123.5230   32.3643 C.3      40      M_A    0.0000
    282 C         101.8536  122.9468   31.3619 C.3      40      M_A    0.0000
    283 O         101.2829  122.9173   30.0545 O.3      40      M_A    0.0000
    284 H         100.1596  124.1917   31.8476 H        40      M_A    0.0000
    285 H         100.2468  122.7229   32.7966 H        40      M_A    0.0000
    286 H         102.7369  123.5949   31.2976 H        40      M_A    0.0000
    287 H         102.2205  121.9564   31.6680 H        40      M_A    0.0000
    288 C         102.0865  122.1962   29.1465 C.3      41      M_A    0.0000
    289 C         103.5010  122.7621   29.0677 C.3      41      M_A    0.0000
    290 O         104.1407  122.3380   27.8649 O.3      41      M_A    0.0000
    291 H         101.6237  122.2201   28.1525 H        41      M_A    0.0000
    292 H         102.1144  121.1410   29.4411 H        41      M_A    0.0000
    293 H         103.4633  123.8581   29.0264 H        41      M_A    0.0000
    294 H         104.0967  122.5082   29.9564 H        41      M_A    0.0000
    295 C         104.7617  121.0802   28.0151 C.3      42      M_A    0.0000
    296 C         105.4709  120.6416   26.7377 C.3      42      M_A    0.0000
    297 O         105.4057  119.2235   26.5938 O.3      42      M_A    0.0000
    298 H         104.0085  120.3335   28.2940 H        42      M_A    0.0000
    299 H         105.4707  121.1200   28.8498 H        42      M_A    0.0000
    300 H         104.9598  121.0635   25.8629 H        42      M_A    0.0000
    301 H         106.5069  121.0075   26.6948 H        42      M_A    0.0000
    302 C         106.4864  118.7217   25.8385 C.3      43      M_A    0.0000
    303 C         106.1264  117.4202   25.1287 C.3      43      M_A    0.0000
    304 O         107.2237  116.5093   25.1723 O.3      43      M_A    0.0000
    305 H         107.3462  118.5562   26.4988 H        43      M_A    0.0000
    306 H         106.8056  119.4765   25.1109 H        43      M_A    0.0000
    307 H         105.2962  116.9273   25.6505 H        43      M_A    0.0000
    308 H         105.7826  117.5938   24.0987 H        43      M_A    0.0000
    309 C         107.9007  116.4424   23.9363 C.3      44      M_A    0.0000
    310 C         108.9406  115.3264   23.9189 C.3      44      M_A    0.0000
    311 O         109.6795  115.3533   22.6986 O.3      44      M_A    0.0000
    312 H         108.3881  117.4041   23.7358 H        44      M_A    0.0000
    313 H         107.1739  116.2983   23.1288 H        44      M_A    0.0000
    314 H         109.6700  115.4827   24.7239 H        44      M_A    0.0000
    315 H         108.4898  114.3398   24.0997 H        44      M_A    0.0000
    316 C         109.9162  114.0554   22.1988 C.3      45      M_A    0.0000
    317 C         111.4064  113.7357   22.1338 C.3      45      M_A    0.0000
    318 O         111.7005  112.9671   20.9682 O.3      45      M_A    0.0000
    319 H         109.4754  113.9645   21.1987 H        45      M_A    0.0000
    320 H         109.3963  113.3219   22.8254 H        45      M_A    0.0000
    321 H         111.9843  114.6644   22.0440 H        45      M_A    0.0000
    322 H         111.7619  113.2395   23.0485 H        45      M_A    0.0000
    323 C         111.4248  111.5967   21.1589 C.3      46      M_A    0.0000
    324 C         111.8452  110.7606   19.9543 C.3      46      M_A    0.0000
    325 O         112.3888  109.5120   20.3801 O.3      46      M_A    0.0000
    326 H         110.3521  111.4636   21.3442 H        46      M_A    0.0000
    327 H         111.9332  111.2440   22.0634 H        46      M_A    0.0000
    328 H         110.9672  110.5210   19.3410 H        46      M_A    0.0000
    329 H         112.5401  111.3038   19.2976 H        46      M_A    0.0000
    330 C         113.0987  108.8675   19.3452 C.3      47      M_A    0.0000
    331 C         112.5124  109.1839   17.9728 C.3      47      M_A    0.0000
    332 O         113.3025  108.5887   16.9445 O.3      47      M_A    0.0000
    333 H         113.0822  107.7838   19.5125 H        47      M_A    0.0000
    334 H         114.1532  109.1631   19.3861 H        47      M_A    0.0000
    335 H         111.5105  108.7448   17.8842 H        47      M_A    0.0000
    336 H         112.3892  110.2654   17.8164 H        47      M_A    0.0000
    337 C         114.0194  109.5544   16.2072 C.3      48      M_A    0.0000
    338 C         114.7675  110.5230   17.1179 C.3      48      M_A    0.0000
    339 O         115.5436  111.4361   16.3434 O.3      48      M_A    0.0000
    340 H         113.3257  110.1117   15.5663 H        48      M_A    0.0000
    341 H         114.7188  109.0518   15.5295 H        48      M_A    0.0000
    342 H         114.0514  111.1316   17.6847 H        48      M_A    0.0000
    343 H         115.3819  109.9973   17.8631 H        48      M_A    0.0000
    344 C         116.8098  110.9054   16.0185 C.3      49      M_A    0.0000
    345 C         117.8692  111.9968   15.9016 C.3      49      M_A    0.0000
    346 O         118.9897  111.5251   15.1548 O.3      49      M_A    0.0000
    347 H         116.7417  110.3545   15.0727 H        49      M_A    0.0000
    348 H         117.1030  110.1696   16.7759 H        49      M_A    0.0000
    349 H         117.4653  112.8514   15.3440 H        49      M_A    0.0000
    350 H         118.1705  112.3859   16.8850 H        49      M_A    0.0000
    351 C         119.9017  112.5616   14.8645 C.3      50      M_A    0.0000
    352 C         121.3481  112.0832   14.9439 C.3      50      M_A    0.0000
    353 O         122.1100  112.6198   13.8635 O.3      50      M_A    0.0000
    354 H         119.7478  113.3893   15.5674 H        50      M_A    0.0000
    355 H         119.6890  112.9676   13.8691 H        50      M_A    0.0000
    356 H         121.8149  112.4557   15.8646 H        50      M_A    0.0000
    357 H         121.4179  110.9865   14.9856 H        50      M_A    0.0000
    358 C         123.2703  111.8584   13.6095 C.3      51      M_A    0.0000
    359 C         123.8930  111.3271   14.8968 C.3      51      M_A    0.0000
    360 O         125.0440  110.5364   14.6037 O.3      51      M_A    0.0000
    361 H         124.0010  112.4762   13.0738 H        51      M_A    0.0000
    362 H         123.0238  111.0300   12.9357 H        51      M_A    0.0000
    363 H         124.2434  112.1632   15.5153 H        51      M_A    0.0000
    364 H         123.1657  110.7750   15.5095 H        51      M_A    0.0000
    365 C         124.8741  109.1934   15.0009 C.3      52      M_A    0.0000
    366 C         123.6131  108.5796   14.4005 C.3      52      M_A    0.0000
    367 O         123.5170  107.1991   14.7483 O.3      52      M_A    0.0000
    368 H         124.8249  109.1409   16.0952 H        52      M_A    0.0000
    369 H         125.7562  108.6117   14.7102 H        52      M_A    0.0000
    370 H         122.7239  109.0657   14.8217 H        52      M_A    0.0000
    371 H         123.5593  108.7296   13.3125 H        52      M_A    0.0000
    372 H         124.0492  106.6341   14.1501 H        52      M_A    0.0000
    373 H          91.9873  145.4731   96.7458 H         0      M_A    0.0000
@<TRIPOS>BOND
     1     1     2      1
     2     1     4      1
     3     1     5      1
     4     1   373      1
     5     2     3      1
     6     2     6      1
     7     2     7      1
     8     3     8      1
     9     8     9      1
    10     8    11      1
    11     8    12      1
    12     9    10      1
    13     9    13      1
    14     9    14      1
    15    10    15      1
    16    15    16      1
    17    15    18      1
    18    15    19      1
    19    16    17      1
    20    16    20      1
    21    16    21      1
    22    17    22      1
    23    22    23      1
    24    22    25      1
    25    22    26      1
    26    23    24      1
    27    23    27      1
    28    23    28      1
    29    24    29      1
    30    29    30      1
    31    29    32      1
    32    29    33      1
    33    30    31      1
    34    30    34      1
    35    30    35      1
    36    31    36      1
    37    36    37      1
    38    36    39      1
    39    36    40      1
    40    37    38      1
    41    37    41      1
    42    37    42      1
    43    38    43      1
    44    43    44      1
    45    43    46      1
    46    43    47      1
    47    44    45      1
    48    44    48      1
    49    44    49      1
    50    45    50      1
    51    50    51      1
    52    50    53      1
    53    50    54      1
    54    51    52      1
    55    51    55      1
    56    51    56      1
    57    52    57      1
    58    57    58      1
    59    57    60      1
    60    57    61      1
    61    58    59      1
    62    58    62      1
    63    58    63      1
    64    59    64      1
    65    64    65      1
    66    64    67      1
    67    64    68      1
    68    65    66      1
    69    65    69      1
    70    65    70      1
    71    66    71      1
    72    71    72      1
    73    71    74      1
    74    71    75      1
    75    72    73      1
    76    72    76      1
    77    72    77      1
    78    73    78      1
    79    78    79      1
    80    78    81      1
    81    78    82      1
    82    79    80      1
    83    79    83      1
    84    79    84      1
    85    80    85      1
    86    85    86      1
    87    85    88      1
    88    85    89      1
    89    86    87      1
    90    86    90      1
    91    86    91      1
    92    87    92      1
    93    92    93      1
    94    92    95      1
    95    92    96      1
    96    93    94      1
    97    93    97      1
    98    93    98      1
    99    94    99      1
   100    99   100      1
   101    99   102      1
   102    99   103      1
   103   100   101      1
   104   100   104      1
   105   100   105      1
   106   101   106      1
   107   106   107      1
   108   106   109      1
   109   106   110      1
   110   107   108      1
   111   107   111      1
   112   107   112      1
   113   108   113      1
   114   113   114      1
   115   113   116      1
   116   113   117      1
   117   114   115      1
   118   114   118      1
   119   114   119      1
   120   115   120      1
   121   120   121      1
   122   120   123      1
   123   120   124      1
   124   121   122      1
   125   121   125      1
   126   121   126      1
   127   122   127      1
   128   127   128      1
   129   127   130      1
   130   127   131      1
   131   128   129      1
   132   128   132      1
   133   128   133      1
   134   129   134      1
   135   134   135      1
   136   134   137      1
   137   134   138      1
   138   135   136      1
   139   135   139      1
   140   135   140      1
   141   136   141      1
   142   141   142      1
   143   141   144      1
   144   141   145      1
   145   142   143      1
   146   142   146      1
   147   142   147      1
   148   143   148      1
   149   148   149      1
   150   148   151      1
   151   148   152      1
   152   149   150      1
   153   149   153      1
   154   149   154      1
   155   150   155      1
   156   155   156      1
   157   155   158      1
   158   155   159      1
   159   156   157      1
   160   156   160      1
   161   156   161      1
   162   157   162      1
   163   162   163      1
   164   162   165      1
   165   162   166      1
   166   163   164      1
   167   163   167      1
   168   163   168      1
   169   164   169      1
   170   169   170      1
   171   169   172      1
   172   169   173      1
   173   170   171      1
   174   170   174      1
   175   170   175      1
   176   171   176      1
   177   176   177      1
   178   176   179      1
   179   176   180      1
   180   177   178      1
   181   177   181      1
   182   177   182      1
   183   178   183      1
   184   183   184      1
   185   183   186      1
   186   183   187      1
   187   184   185      1
   188   184   188      1
   189   184   189      1
   190   185   190      1
   191   190   191      1
   192   190   193      1
   193   190   194      1
   194   191   192      1
   195   191   195      1
   196   191   196      1
   197   192   197      1
   198   197   198      1
   199   197   200      1
   200   197   201      1
   201   198   199      1
   202   198   202      1
   203   198   203      1
   204   199   204      1
   205   204   205      1
   206   204   207      1
   207   204   208      1
   208   205   206      1
   209   205   209      1
   210   205   210      1
   211   206   211      1
   212   211   212      1
   213   211   214      1
   214   211   215      1
   215   212   213      1
   216   212   216      1
   217   212   217      1
   218   213   218      1
   219   218   219      1
   220   218   221      1
   221   218   222      1
   222   219   220      1
   223   219   223      1
   224   219   224      1
   225   220   225      1
   226   225   226      1
   227   225   228      1
   228   225   229      1
   229   226   227      1
   230   226   230      1
   231   226   231      1
   232   227   232      1
   233   232   233      1
   234   232   235      1
   235   232   236      1
   236   233   234      1
   237   233   237      1
   238   233   238      1
   239   234   239      1
   240   239   240      1
   241   239   242      1
   242   239   243      1
   243   240   241      1
   244   240   244      1
   245   240   245      1
   246   241   246      1
   247   246   247      1
   248   246   249      1
   249   246   250      1
   250   247   248      1
   251   247   251      1
   252   247   252      1
   253   248   253      1
   254   253   254      1
   255   253   256      1
   256   253   257      1
   257   254   255      1
   258   254   258      1
   259   254   259      1
   260   255   260      1
   261   260   261      1
   262   260   263      1
   263   260   264      1
   264   261   262      1
   265   261   265      1
   266   261   266      1
   267   262   267      1
   268   267   268      1
   269   267   270      1
   270   267   271      1
   271   268   269      1
   272   268   272      1
   273   268   273      1
   274   269   274      1
   275   274   275      1
   276   274   277      1
   277   274   278      1
   278   275   276      1
   279   275   279      1
   280   275   280      1
   281   276   281      1
   282   281   282      1
   283   281   284      1
   284   281   285      1
   285   282   283      1
   286   282   286      1
   287   282   287      1
   288   283   288      1
   289   288   289      1
   290   288   291      1
   291   288   292      1
   292   289   290      1
   293   289   293      1
   294   289   294      1
   295   290   295      1
   296   295   296      1
   297   295   298      1
   298   295   299      1
   299   296   297      1
   300   296   300      1
   301   296   301      1
   302   297   302      1
   303   302   303      1
   304   302   305      1
   305   302   306      1
   306   303   304      1
   307   303   307      1
   308   303   308      1
   309   304   309      1
   310   309   310      1
   311   309   312      1
   312   309   313      1
   313   310   311      1
   314   310   314      1
   315   310   315      1
   316   311   316      1
   317   316   317      1
   318   316   319      1
   319   316   320      1
   320   317   318      1
   321   317   321      1
   322   317   322      1
   323   318   323      1
   324   323   324      1
   325   323   326      1
   326   323   327      1
   327   324   325      1
   328   324   328      1
   329   324   329      1
   330   325   330      1
   331   330   331      1
   332   330   333      1
   333   330   334      1
   334   331   332      1
   335   331   335      1
   336   331   336      1
   337   332   337      1
   338   337   338      1
   339   337   340      1
   340   337   341      1
   341   338   339      1
   342   338   342      1
   343   338   343      1
   344   339   344      1
   345   344   345      1
   346   344   347      1
   347   344   348      1
   348   345   346      1
   349   345   349      1
   350   345   350      1
   351   346   351      1
   352   351   352      1
   353   351   354      1
   354   351   355      1
   355   352   353      1
   356   352   356      1
   357   352   357      1
   358   353   358      1
   359   358   359      1
   360   358   361      1
   361   358   362      1
   362   359   360      1
   363   359   363      1
   364   359   364      1
   365   360   365      1
   366   365   366      1
   367   365   368      1
   368   365   369      1
   369   366   367      1
   370   366   370      1
   371   366   371      1
   372   367   372      1
