###
### Created by PolyChef-cpp17 on Mon May 12 10:39:06 2025
###

@<TRIPOS>MOLECULE
NO_INFO
2172 2171 1 0 0
SMALL
USER_CHARGES


@<TRIPOS>ATOM
      1 C         106.2951   59.1428   21.1296 C.3       0      M_A    0.0000
      2 C         106.5251   60.6499   21.1850 C.3       0      M_A    0.0000
      3 O         107.7204   60.9449   21.9061 O.3       0      M_A    0.0000
      4 H         106.9097   58.6475   21.8909 H         0      M_A    0.0000
      5 H         106.6279   58.7421   20.1654 H         0      M_A    0.0000
      6 H         105.7070   61.1327   21.7346 H         0      M_A    0.0000
      7 H         106.5321   61.1031   20.1832 H         0      M_A    0.0000
      8 C         108.4794   59.7838   22.1629 C.3       1      M_A    0.0000
      9 C         109.9155   60.1196   22.5529 C.3       1      M_A    0.0000
     10 O         110.0767   60.0478   23.9688 O.3       1      M_A    0.0000
     11 H         108.0039   59.2084   22.9662 H         1      M_A    0.0000
     12 H         108.4665   59.1357   21.2792 H         1      M_A    0.0000
     13 H         110.1477   61.1539   22.2688 H         1      M_A    0.0000
     14 H         110.6445   59.4854   22.0279 H         1      M_A    0.0000
     15 C         111.4366   59.9999   24.3411 C.3       2      M_A    0.0000
     16 C         112.2673   61.0352   23.5891 C.3       2      M_A    0.0000
     17 O         113.1804   61.6802   24.4757 O.3       2      M_A    0.0000
     18 H         111.5245   60.1701   25.4209 H         2      M_A    0.0000
     19 H         111.8296   58.9929   24.1613 H         2      M_A    0.0000
     20 H         111.6136   61.8231   23.1937 H         2      M_A    0.0000
     21 H         112.7827   60.5989   22.7213 H         2      M_A    0.0000
     22 C         114.4327   61.9067   23.8669 C.3       3      M_A    0.0000
     23 C         115.2369   62.9733   24.6037 C.3       3      M_A    0.0000
     24 O         116.6354   62.7580   24.4198 O.3       3      M_A    0.0000
     25 H         115.0001   60.9685   23.8418 H         3      M_A    0.0000
     26 H         114.2835   62.1972   22.8208 H         3      M_A    0.0000
     27 H         115.0536   62.9002   25.6833 H         3      M_A    0.0000
     28 H         114.9398   63.9903   24.3095 H         3      M_A    0.0000
     29 C         117.2601   63.8616   23.8016 C.3       4      M_A    0.0000
     30 C         118.7807   63.7430   23.8322 C.3       4      M_A    0.0000
     31 O         119.3325   64.0844   22.5614 O.3       4      M_A    0.0000
     32 H         116.9170   63.9393   22.7629 H         4      M_A    0.0000
     33 H         116.9404   64.7864   24.2951 H         4      M_A    0.0000
     34 H         119.0705   62.7020   24.0240 H         4      M_A    0.0000
     35 H         119.2247   64.3400   24.6420 H         4      M_A    0.0000
     36 C         120.3856   63.2196   22.1963 C.3       5      M_A    0.0000
     37 C         121.4305   63.1002   23.3014 C.3       5      M_A    0.0000
     38 O         122.6478   62.5687   22.7804 O.3       5      M_A    0.0000
     39 H         119.9786   62.2279   21.9647 H         5      M_A    0.0000
     40 H         120.8496   63.5790   21.2708 H         5      M_A    0.0000
     41 H         121.0871   62.3910   24.0653 H         5      M_A    0.0000
     42 H         121.5931   64.0560   23.8201 H         5      M_A    0.0000
     43 C         123.7760   63.2543   23.2778 C.3       6      M_A    0.0000
     44 C         124.5191   62.4358   24.3291 C.3       6      M_A    0.0000
     45 O         125.9253   62.6551   24.2284 O.3       6      M_A    0.0000
     46 H         124.4530   63.4910   22.4482 H         6      M_A    0.0000
     47 H         123.4632   64.2176   23.6963 H         6      M_A    0.0000
     48 H         124.3609   61.3648   24.1493 H         6      M_A    0.0000
     49 H         124.1481   62.6352   25.3449 H         6      M_A    0.0000
     50 C         126.3711   63.6347   25.1405 C.3       7      M_A    0.0000
     51 C         127.8583   63.4890   25.4474 C.3       7      M_A    0.0000
     52 O         128.0768   63.4749   26.8574 O.3       7      M_A    0.0000
     53 H         126.1755   64.6319   24.7281 H         7      M_A    0.0000
     54 H         125.7837   63.5692   26.0634 H         7      M_A    0.0000
     55 H         128.4067   64.3570   25.0596 H         7      M_A    0.0000
     56 H         128.2955   62.6059   24.9593 H         7      M_A    0.0000
     57 C         129.3638   62.9991   27.1851 C.3       8      M_A    0.0000
     58 C         129.5251   61.5205   26.8460 C.3       8      M_A    0.0000
     59 O         130.8477   61.2581   26.3791 O.3       8      M_A    0.0000
     60 H         130.1170   63.5857   26.6454 H         8      M_A    0.0000
     61 H         129.5559   63.1686   28.2506 H         8      M_A    0.0000
     62 H         128.8494   61.2495   26.0248 H         8      M_A    0.0000
     63 H         129.2564   60.8717   27.6922 H         8      M_A    0.0000
     64 C         131.0540   61.7588   25.0764 C.3       9      M_A    0.0000
     65 C         131.6831   60.7137   24.1603 C.3       9      M_A    0.0000
     66 O         131.1475   60.8200   22.8421 O.3       9      M_A    0.0000
     67 H         130.0958   62.0881   24.6570 H         9      M_A    0.0000
     68 H         131.6858   62.6530   25.1242 H         9      M_A    0.0000
     69 H         131.4312   59.7060   24.5145 H         9      M_A    0.0000
     70 H         132.7811   60.7737   24.1591 H         9      M_A    0.0000
     71 C         131.5627   59.7525   22.0184 C.3      10      M_A    0.0000
     72 C         132.8377   59.0967   22.5395 C.3      10      M_A    0.0000
     73 O         132.9796   57.7842   21.9983 O.3      10      M_A    0.0000
     74 H         130.7616   59.0059   21.9589 H        10      M_A    0.0000
     75 H         131.7124   60.1167   20.9957 H        10      M_A    0.0000
     76 H         132.7774   58.9757   23.6286 H        10      M_A    0.0000
     77 H         133.7271   59.7142   22.3475 H        10      M_A    0.0000
     78 C         134.1763   57.1680   22.4209 C.3      11      M_A    0.0000
     79 C         134.8234   56.3585   21.3015 C.3      11      M_A    0.0000
     80 O         136.2203   56.6396   21.2272 O.3      11      M_A    0.0000
     81 H         134.8760   57.9354   22.7733 H        11      M_A    0.0000
     82 H         133.9716   56.5264   23.2855 H        11      M_A    0.0000
     83 H         134.3982   56.6530   20.3335 H        11      M_A    0.0000
     84 H         134.6305   55.2811   21.4071 H        11      M_A    0.0000
     85 C         136.9100   55.6772   20.4601 C.3      12      M_A    0.0000
     86 C         138.4127   55.9390   20.4396 C.3      12      M_A    0.0000
     87 O         139.1131   54.8698   21.0736 O.3      12      M_A    0.0000
     88 H         136.7150   54.6784   20.8686 H        12      M_A    0.0000
     89 H         136.5109   55.6689   19.4394 H        12      M_A    0.0000
     90 H         138.6424   56.8431   21.0178 H        12      M_A    0.0000
     91 H         138.7855   56.1222   19.4214 H        12      M_A    0.0000
     92 C         140.4075   54.6993   20.5389 C.3      13      M_A    0.0000
     93 C         141.3982   55.7029   21.1206 C.3      13      M_A    0.0000
     94 O         142.6232   55.0543   21.4589 O.3      13      M_A    0.0000
     95 H         140.7537   53.6788   20.7423 H        13      M_A    0.0000
     96 H         140.3674   54.7925   19.4477 H        13      M_A    0.0000
     97 H         141.0023   56.1199   22.0554 H        13      M_A    0.0000
     98 H         141.5625   56.5572   20.4481 H        13      M_A    0.0000
     99 C         143.7274   55.9254   21.3471 C.3      14      M_A    0.0000
    100 C         144.8050   55.6107   22.3800 C.3      14      M_A    0.0000
    101 O         146.0190   55.2316   21.7333 O.3      14      M_A    0.0000
    102 H         144.1501   55.8495   20.3380 H        14      M_A    0.0000
    103 H         143.3878   56.9618   21.4548 H        14      M_A    0.0000
    104 H         144.4991   54.7505   22.9890 H        14      M_A    0.0000
    105 H         144.9604   56.4438   23.0806 H        14      M_A    0.0000
    106 C         147.1218   55.2872   22.6114 C.3      15      M_A    0.0000
    107 C         147.6538   53.8963   22.9425 C.3      15      M_A    0.0000
    108 O         149.0743   53.9247   23.0735 O.3      15      M_A    0.0000
    109 H         147.9186   55.8885   22.1574 H        15      M_A    0.0000
    110 H         146.8326   55.8125   23.5286 H        15      M_A    0.0000
    111 H         147.4345   53.2062   22.1178 H        15      M_A    0.0000
    112 H         147.1715   53.4720   23.8350 H        15      M_A    0.0000
    113 C         149.5620   52.7902   23.7558 C.3      16      M_A    0.0000
    114 C         150.8507   53.0945   24.5134 C.3      16      M_A    0.0000
    115 O         150.9921   52.2157   25.6285 O.3      16      M_A    0.0000
    116 H         148.7985   52.4307   24.4561 H        16      M_A    0.0000
    117 H         149.7237   51.9753   23.0412 H        16      M_A    0.0000
    118 H         150.8108   54.1109   24.9255 H        16      M_A    0.0000
    119 H         151.7322   53.0633   23.8567 H        16      M_A    0.0000
    120 C         151.8395   51.1266   25.3353 C.3      17      M_A    0.0000
    121 C         152.4984   50.5663   26.5919 C.3      17      M_A    0.0000
    122 O         153.3894   49.5038   26.2554 O.3      17      M_A    0.0000
    123 H         151.2606   50.3383   24.8393 H        17      M_A    0.0000
    124 H         152.6019   51.4407   24.6133 H        17      M_A    0.0000
    125 H         151.7363   50.1317   27.2513 H        17      M_A    0.0000
    126 H         153.0017   51.3490   27.1776 H        17      M_A    0.0000
    127 C         154.1958   49.1276   27.3501 C.3      18      M_A    0.0000
    128 C         155.1665   50.2356   27.7467 C.3      18      M_A    0.0000
    129 O         155.9376   49.8399   28.8802 O.3      18      M_A    0.0000
    130 H         153.5556   48.8749   28.2039 H        18      M_A    0.0000
    131 H         154.7441   48.2116   27.1025 H        18      M_A    0.0000
    132 H         154.6084   51.1301   28.0513 H        18      M_A    0.0000
    133 H         155.8063   50.5434   26.9070 H        18      M_A    0.0000
    134 C         156.7078   50.9063   29.3901 C.3      19      M_A    0.0000
    135 C         157.6949   50.4352   30.4534 C.3      19      M_A    0.0000
    136 O         158.9994   50.2921   29.8933 O.3      19      M_A    0.0000
    137 H         157.2521   51.3874   28.5686 H        19      M_A    0.0000
    138 H         156.0424   51.6737   29.8015 H        19      M_A    0.0000
    139 H         157.4057   49.4412   30.8177 H        19      M_A    0.0000
    140 H         157.7001   51.0955   31.3327 H        19      M_A    0.0000
    141 C         160.0055   50.3619   30.8799 C.3      20      M_A    0.0000
    142 C         159.5788   49.6771   32.1746 C.3      20      M_A    0.0000
    143 O         160.0999   48.3500   32.2311 O.3      20      M_A    0.0000
    144 H         160.9214   49.8938   30.4995 H        20      M_A    0.0000
    145 H         160.2592   51.4110   31.0698 H        20      M_A    0.0000
    146 H         158.4860   49.5801   32.2034 H        20      M_A    0.0000
    147 H         159.8591   50.2622   33.0624 H        20      M_A    0.0000
    148 C         159.4632   47.4956   31.3064 C.3      21      M_A    0.0000
    149 C         159.2885   46.0862   31.8636 C.3      21      M_A    0.0000
    150 O         159.8602   45.1258   30.9767 O.3      21      M_A    0.0000
    151 H         158.4837   47.9115   31.0412 H        21      M_A    0.0000
    152 H         160.0414   47.4681   30.3758 H        21      M_A    0.0000
    153 H         158.2209   45.8422   31.9348 H        21      M_A    0.0000
    154 H         159.6941   45.9920   32.8814 H        21      M_A    0.0000
    155 C         159.1709   43.8956   31.0192 C.3      22      M_A    0.0000
    156 C         158.8455   43.4769   32.4496 C.3      22      M_A    0.0000
    157 O         159.6592   42.3727   32.8426 O.3      22      M_A    0.0000
    158 H         158.2440   43.9775   30.4389 H        22      M_A    0.0000
    159 H         159.7701   43.1235   30.5234 H        22      M_A    0.0000
    160 H         157.8060   43.1301   32.5102 H        22      M_A    0.0000
    161 H         158.9311   44.3164   33.1546 H        22      M_A    0.0000
    162 C         160.6165   42.7435   33.8103 C.3      23      M_A    0.0000
    163 C         161.2176   44.1146   33.5172 C.3      23      M_A    0.0000
    164 O         162.0725   44.5220   34.5845 O.3      23      M_A    0.0000
    165 H         160.1479   42.7503   34.8018 H        23      M_A    0.0000
    166 H         161.4050   41.9836   33.8544 H        23      M_A    0.0000
    167 H         160.4207   44.8668   33.4570 H        23      M_A    0.0000
    168 H         161.7370   44.1386   32.5483 H        23      M_A    0.0000
    169 C         163.1701   45.2767   34.1198 C.3      24      M_A    0.0000
    170 C         163.9440   45.9180   35.2674 C.3      24      M_A    0.0000
    171 O         165.3484   45.8302   35.0313 O.3      24      M_A    0.0000
    172 H         163.8387   44.6282   33.5409 H        24      M_A    0.0000
    173 H         162.8166   46.0449   33.4227 H        24      M_A    0.0000
    174 H         163.7536   45.3697   36.1989 H        24      M_A    0.0000
    175 H         163.6264   46.9547   35.4504 H        24      M_A    0.0000
    176 C         166.0968   46.2401   36.1548 C.3      25      M_A    0.0000
    177 C         167.3006   45.3344   36.3955 C.3      25      M_A    0.0000
    178 O         168.2779   46.0056   37.1893 O.3      25      M_A    0.0000
    179 H         166.4355   47.2729   36.0093 H        25      M_A    0.0000
    180 H         165.4496   46.2563   37.0390 H        25      M_A    0.0000
    181 H         167.7881   45.0991   35.4408 H        25      M_A    0.0000
    182 H         167.0095   44.3706   36.8379 H        25      M_A    0.0000
    183 C         169.2584   45.1169   37.6784 C.3      26      M_A    0.0000
    184 C         169.7951   44.2043   36.5801 C.3      26      M_A    0.0000
    185 O         171.1440   43.8312   36.8577 O.3      26      M_A    0.0000
    186 H         170.0835   45.6908   38.1171 H        26      M_A    0.0000
    187 H         168.8367   44.5214   38.4960 H        26      M_A    0.0000
    188 H         169.8151   44.7423   35.6237 H        26      M_A    0.0000
    189 H         169.1537   43.3247   36.4248 H        26      M_A    0.0000
    190 C         171.4300   42.5236   36.4120 C.3      27      M_A    0.0000
    191 C         172.7463   42.0051   36.9827 C.3      27      M_A    0.0000
    192 O         172.5212   40.8387   37.7731 O.3      27      M_A    0.0000
    193 H         170.6123   41.8531   36.7026 H        27      M_A    0.0000
    194 H         171.4578   42.5086   35.3165 H        27      M_A    0.0000
    195 H         173.1823   42.7538   37.6562 H        27      M_A    0.0000
    196 H         173.4943   41.8257   36.1969 H        27      M_A    0.0000
    197 C         173.3901   40.7802   38.8830 C.3      28      M_A    0.0000
    198 C         174.6873   40.0497   38.5500 C.3      28      M_A    0.0000
    199 O         175.7585   40.5470   39.3508 O.3      28      M_A    0.0000
    200 H         173.6165   41.7983   39.2220 H        28      M_A    0.0000
    201 H         172.8810   40.2896   39.7204 H        28      M_A    0.0000
    202 H         174.9677   40.2429   37.5066 H        28      M_A    0.0000
    203 H         174.5821   38.9591   38.6433 H        28      M_A    0.0000
    204 C         175.8295   39.8925   40.5985 C.3      29      M_A    0.0000
    205 C         177.1969   40.0650   41.2524 C.3      29      M_A    0.0000
    206 O         177.4227   39.0351   42.2137 O.3      29      M_A    0.0000
    207 H         175.0508   40.2879   41.2618 H        29      M_A    0.0000
    208 H         175.6020   38.8286   40.4667 H        29      M_A    0.0000
    209 H         177.2305   41.0134   41.8038 H        29      M_A    0.0000
    210 H         178.0062   40.1125   40.5095 H        29      M_A    0.0000
    211 C         178.7982   38.7836   42.4012 C.3      30      M_A    0.0000
    212 C         179.3673   39.5848   43.5680 C.3      30      M_A    0.0000
    213 O         180.2746   38.7853   44.3254 O.3      30      M_A    0.0000
    214 H         178.9513   37.7124   42.5796 H        30      M_A    0.0000
    215 H         179.3415   39.0166   41.4784 H        30      M_A    0.0000
    216 H         178.5601   39.8689   44.2551 H        30      M_A    0.0000
    217 H         179.8329   40.5238   43.2353 H        30      M_A    0.0000
    218 C         180.6731   39.4280   45.5164 C.3      31      M_A    0.0000
    219 C         181.9733   38.8490   46.0656 C.3      31      M_A    0.0000
    220 O         181.8880   38.6879   47.4807 O.3      31      M_A    0.0000
    221 H         180.7981   40.5009   45.3267 H        31      M_A    0.0000
    222 H         179.8742   39.3444   46.2619 H        31      M_A    0.0000
    223 H         182.7995   39.5483   45.8847 H        31      M_A    0.0000
    224 H         182.2502   37.9098   45.5653 H        31      M_A    0.0000
    225 C         182.9926   37.9777   47.9963 C.3      32      M_A    0.0000
    226 C         183.9815   37.5934   46.9001 C.3      32      M_A    0.0000
    227 O         185.1862   37.0859   47.4719 O.3      32      M_A    0.0000
    228 H         183.4989   38.5906   48.7517 H        32      M_A    0.0000
    229 H         182.6392   37.0828   48.5211 H        32      M_A    0.0000
    230 H         184.2653   38.4834   46.3241 H        32      M_A    0.0000
    231 H         183.5444   36.8871   46.1795 H        32      M_A    0.0000
    232 C         186.1915   36.8995   46.4998 C.3      33      M_A    0.0000
    233 C         185.6065   36.7671   45.0972 C.3      33      M_A    0.0000
    234 O         186.5854   37.1048   44.1155 O.3      33      M_A    0.0000
    235 H         186.8887   37.7454   46.5304 H        33      M_A    0.0000
    236 H         186.7829   36.0117   46.7511 H        33      M_A    0.0000
    237 H         184.7819   37.4795   44.9674 H        33      M_A    0.0000
    238 H         185.1810   35.7686   44.9205 H        33      M_A    0.0000
    239 C         187.7496   37.6471   44.6992 C.3      34      M_A    0.0000
    240 C         188.8049   37.9855   43.6508 C.3      34      M_A    0.0000
    241 O         189.6275   39.0607   44.1013 O.3      34      M_A    0.0000
    242 H         187.4872   38.5502   45.2633 H        34      M_A    0.0000
    243 H         188.1543   36.9402   45.4324 H        34      M_A    0.0000
    244 H         188.3190   38.3344   42.7306 H        34      M_A    0.0000
    245 H         189.4026   37.1067   43.3687 H        34      M_A    0.0000
    246 C         189.8712   38.9902   45.4890 C.3      35      M_A    0.0000
    247 C         191.1232   39.7665   45.8852 C.3      35      M_A    0.0000
    248 O         190.8600   40.5902   47.0202 O.3      35      M_A    0.0000
    249 H         189.0043   39.3865   46.0314 H        35      M_A    0.0000
    250 H         189.9623   37.9407   45.7913 H        35      M_A    0.0000
    251 H         191.4147   40.4450   45.0734 H        35      M_A    0.0000
    252 H         191.9834   39.1028   46.0551 H        35      M_A    0.0000
    253 C         191.9343   41.4616   47.2975 C.3      36      M_A    0.0000
    254 C         192.6005   41.1344   48.6303 C.3      36      M_A    0.0000
    255 O         193.9988   41.4116   48.5694 O.3      36      M_A    0.0000
    256 H         192.6734   41.3968   46.4899 H        36      M_A    0.0000
    257 H         191.5751   42.4970   47.2954 H        36      M_A    0.0000
    258 H         192.5083   40.0613   48.8406 H        36      M_A    0.0000
    259 H         192.1190   41.6550   49.4708 H        36      M_A    0.0000
    260 C         194.5183   41.7735   49.8302 C.3      37      M_A    0.0000
    261 C         195.9692   41.3314   49.9938 C.3      37      M_A    0.0000
    262 O         196.7734   42.4200   50.4456 O.3      37      M_A    0.0000
    263 H         194.4476   42.8608   49.9545 H        37      M_A    0.0000
    264 H         193.8962   41.3382   50.6205 H        37      M_A    0.0000
    265 H         196.3794   41.0283   49.0221 H        37      M_A    0.0000
    266 H         196.0617   40.4563   50.6532 H        37      M_A    0.0000
    267 C         196.7572   42.5373   51.8514 C.3      38      M_A    0.0000
    268 C         198.0174   43.2166   52.3784 C.3      38      M_A    0.0000
    269 O         197.6888   44.4506   53.0150 O.3      38      M_A    0.0000
    270 H         195.8736   43.1096   52.1588 H        38      M_A    0.0000
    271 H         196.6443   41.5438   52.2999 H        38      M_A    0.0000
    272 H         198.6831   43.4689   51.5431 H        38      M_A    0.0000
    273 H         198.5942   42.5572   53.0429 H        38      M_A    0.0000
    274 C         198.5932   44.7645   54.0513 C.3      39      M_A    0.0000
    275 C         199.4811   45.9510   53.6891 C.3      39      M_A    0.0000
    276 O         199.6901   46.7828   54.8294 O.3      39      M_A    0.0000
    277 H         198.0335   44.9886   54.9673 H        39      M_A    0.0000
    278 H         199.2066   43.8856   54.2798 H        39      M_A    0.0000
    279 H         198.9809   46.5768   52.9391 H        39      M_A    0.0000
    280 H         200.4321   45.6319   53.2387 H        39      M_A    0.0000
    281 C         200.7645   47.6769   54.6378 C.3      40      M_A    0.0000
    282 C         201.5448   47.9105   55.9277 C.3      40      M_A    0.0000
    283 O         202.9103   48.2052   55.6371 O.3      40      M_A    0.0000
    284 H         201.4360   47.2792   53.8673 H        40      M_A    0.0000
    285 H         200.3841   48.6268   54.2455 H        40      M_A    0.0000
    286 H         201.5495   46.9949   56.5327 H        40      M_A    0.0000
    287 H         201.0847   48.6896   56.5526 H        40      M_A    0.0000
    288 C         203.5759   48.7624   56.7493 C.3      41      M_A    0.0000
    289 C         204.3106   50.0487   56.3847 C.3      41      M_A    0.0000
    290 O         204.1977   51.0027   57.4396 O.3      41      M_A    0.0000
    291 H         202.8484   48.9657   57.5444 H        41      M_A    0.0000
    292 H         204.2765   48.0276   57.1619 H        41      M_A    0.0000
    293 H         203.8451   50.5079   55.5033 H        41      M_A    0.0000
    294 H         205.3604   49.8619   56.1159 H        41      M_A    0.0000
    295 C         202.8699   51.4507   57.6032 C.3      42      M_A    0.0000
    296 C         202.7440   52.4434   58.7547 C.3      42      M_A    0.0000
    297 O         202.0020   51.8682   59.8291 O.3      42      M_A    0.0000
    298 H         202.5267   51.9192   56.6729 H        42      M_A    0.0000
    299 H         202.2116   50.5903   57.7685 H        42      M_A    0.0000
    300 H         202.1787   53.3253   58.4276 H        42      M_A    0.0000
    301 H         203.7241   52.8131   59.0894 H        42      M_A    0.0000
    302 C         202.2852   52.4975   61.0595 C.3      43      M_A    0.0000
    303 C         203.7143   52.2264   61.5195 C.3      43      M_A    0.0000
    304 O         204.1561   53.2549   62.4044 O.3      43      M_A    0.0000
    305 H         202.1284   53.5783   60.9601 H        43      M_A    0.0000
    306 H         201.5703   52.1573   61.8173 H        43      M_A    0.0000
    307 H         204.3944   52.2480   60.6585 H        43      M_A    0.0000
    308 H         203.8202   51.2290   61.9702 H        43      M_A    0.0000
    309 C         205.5311   53.1400   62.6987 C.3      44      M_A    0.0000
    310 C         206.2139   54.5029   62.7589 C.3      44      M_A    0.0000
    311 O         206.8559   54.6828   64.0204 O.3      44      M_A    0.0000
    312 H         205.6561   52.6220   63.6572 H        44      M_A    0.0000
    313 H         206.0140   52.5050   61.9473 H        44      M_A    0.0000
    314 H         205.4642   55.3003   62.6786 H        44      M_A    0.0000
    315 H         206.9120   54.6516   61.9224 H        44      M_A    0.0000
    316 C         207.5549   55.9066   64.0845 C.3      45      M_A    0.0000
    317 C         206.6151   57.1030   63.9730 C.3      45      M_A    0.0000
    318 O         207.2537   58.2845   64.4547 O.3      45      M_A    0.0000
    319 H         208.1095   55.9599   65.0291 H        45      M_A    0.0000
    320 H         208.3087   55.9391   63.2897 H        45      M_A    0.0000
    321 H         205.7349   56.9475   64.6099 H        45      M_A    0.0000
    322 H         206.2348   57.2347   62.9497 H        45      M_A    0.0000
    323 C         206.9613   59.4055   63.6496 C.3      46      M_A    0.0000
    324 C         207.6150   60.6752   64.1862 C.3      46      M_A    0.0000
    325 O         207.6874   61.6681   63.1641 O.3      46      M_A    0.0000
    326 H         207.3056   59.2178   62.6255 H        46      M_A    0.0000
    327 H         205.8751   59.5350   63.5838 H        46      M_A    0.0000
    328 H         208.6499   60.4650   64.4851 H        46      M_A    0.0000
    329 H         207.1061   61.0528   65.0848 H        46      M_A    0.0000
    330 C         208.4537   62.7821   63.5670 C.3      47      M_A    0.0000
    331 C         207.9161   63.4057   64.8512 C.3      47      M_A    0.0000
    332 O         208.8517   64.3453   65.3781 O.3      47      M_A    0.0000
    333 H         209.4954   62.4730   63.7149 H        47      M_A    0.0000
    334 H         208.4708   63.5247   62.7612 H        47      M_A    0.0000
    335 H         207.7919   62.6315   65.6191 H        47      M_A    0.0000
    336 H         206.9239   63.8572   64.7065 H        47      M_A    0.0000
    337 C         208.3288   65.6556   65.3931 C.3      48      M_A    0.0000
    338 C         208.8233   66.4498   66.5980 C.3      48      M_A    0.0000
    339 O         208.9314   67.8345   66.2713 O.3      48      M_A    0.0000
    340 H         208.6141   66.1719   64.4686 H        48      M_A    0.0000
    341 H         207.2338   65.6123   65.3890 H        48      M_A    0.0000
    342 H         209.8326   66.1192   66.8748 H        48      M_A    0.0000
    343 H         208.1931   66.2891   67.4846 H        48      M_A    0.0000
    344 C         208.6619   68.6595   67.3836 C.3      49      M_A    0.0000
    345 C         209.3595   70.0114   67.2694 C.3      49      M_A    0.0000
    346 O         208.5340   71.0445   67.8053 O.3      49      M_A    0.0000
    347 H         207.5791   68.8093   67.4717 H        49      M_A    0.0000
    348 H         208.9715   68.1477   68.3019 H        49      M_A    0.0000
    349 H         209.5187   70.2616   66.2127 H        49      M_A    0.0000
    350 H         210.3548   70.0026   67.7366 H        49      M_A    0.0000
    351 C         209.0702   71.5819   68.9944 C.3      50      M_A    0.0000
    352 C         208.3148   72.8284   69.4445 C.3      50      M_A    0.0000
    353 O         207.5361   72.5463   70.6064 O.3      50      M_A    0.0000
    354 H         209.0345   70.8231   69.7853 H        50      M_A    0.0000
    355 H         210.1311   71.8127   68.8453 H        50      M_A    0.0000
    356 H         207.6054   73.1370   68.6661 H        50      M_A    0.0000
    357 H         208.9877   73.6834   69.6037 H        50      M_A    0.0000
    358 C         206.6802   73.6175   70.9383 C.3      51      M_A    0.0000
    359 C         205.5439   73.7684   69.9316 C.3      51      M_A    0.0000
    360 O         204.3036   73.9704   70.6073 O.3      51      M_A    0.0000
    361 H         206.2659   73.4552   71.9406 H        51      M_A    0.0000
    362 H         207.2613   74.5447   70.9984 H        51      M_A    0.0000
    363 H         205.4320   72.8427   69.3529 H        51      M_A    0.0000
    364 H         205.7436   74.5656   69.2010 H        51      M_A    0.0000
    365 C         204.2239   75.2541   71.1871 C.3      52      M_A    0.0000
    366 C         202.8443   75.5242   71.7795 C.3      52      M_A    0.0000
    367 O         202.8935   76.6403   72.6672 O.3      52      M_A    0.0000
    368 H         204.9864   75.3479   71.9697 H        52      M_A    0.0000
    369 H         204.4698   76.0113   70.4339 H        52      M_A    0.0000
    370 H         202.5219   74.6656   72.3822 H        52      M_A    0.0000
    371 H         202.0799   75.6576   71.0005 H        52      M_A    0.0000
    372 C         201.6848   76.8010   73.3767 C.3      53      M_A    0.0000
    373 C         201.3132   78.2718   73.5383 C.3      53      M_A    0.0000
    374 O         200.1856   78.4085   74.4018 O.3      53      M_A    0.0000
    375 H         200.8806   76.2730   72.8502 H        53      M_A    0.0000
    376 H         201.7699   76.3198   74.3577 H        53      M_A    0.0000
    377 H         201.0114   78.6895   72.5694 H        53      M_A    0.0000
    378 H         202.1646   78.8768   73.8822 H        53      M_A    0.0000
    379 C         200.1565   79.6703   75.0323 C.3      54      M_A    0.0000
    380 C         200.5670   80.7895   74.0805 C.3      54      M_A    0.0000
    381 O         200.2130   82.0603   74.6241 O.3      54      M_A    0.0000
    382 H         199.1468   79.8628   75.4146 H        54      M_A    0.0000
    383 H         200.8136   79.6560   75.9092 H        54      M_A    0.0000
    384 H         200.0184   80.6957   73.1346 H        54      M_A    0.0000
    385 H         201.6349   80.7407   73.8228 H        54      M_A    0.0000
    386 C         201.2660   82.9923   74.5106 C.3      55      M_A    0.0000
    387 C         201.7559   83.1221   73.0718 C.3      55      M_A    0.0000
    388 O         201.9910   84.4916   72.7475 O.3      55      M_A    0.0000
    389 H         200.9277   83.9698   74.8748 H        55      M_A    0.0000
    390 H         202.0905   82.6941   75.1681 H        55      M_A    0.0000
    391 H         200.9800   82.7707   72.3797 H        55      M_A    0.0000
    392 H         202.6428   82.5009   72.8805 H        55      M_A    0.0000
    393 C         202.6869   85.1630   73.7747 C.3      56      M_A    0.0000
    394 C         203.4633   86.3636   73.2430 C.3      56      M_A    0.0000
    395 O         203.5782   87.3679   74.2500 O.3      56      M_A    0.0000
    396 H         201.9751   85.4937   74.5406 H        56      M_A    0.0000
    397 H         203.3649   84.4624   74.2753 H        56      M_A    0.0000
    398 H         202.9158   86.8238   72.4105 H        56      M_A    0.0000
    399 H         204.4458   86.0749   72.8425 H        56      M_A    0.0000
    400 C         204.5658   88.3231   73.9293 C.3      57      M_A    0.0000
    401 C         204.4469   88.7986   72.4847 C.3      57      M_A    0.0000
    402 O         204.5544   90.2198   72.4179 O.3      57      M_A    0.0000
    403 H         204.4775   89.1798   74.6082 H        57      M_A    0.0000
    404 H         205.5591   87.8965   74.1093 H        57      M_A    0.0000
    405 H         203.4551   88.5460   72.0885 H        57      M_A    0.0000
    406 H         205.1760   88.3042   71.8265 H        57      M_A    0.0000
    407 C         203.4595   90.8593   73.0363 C.3      58      M_A    0.0000
    408 C         203.9033   91.7588   74.1858 C.3      58      M_A    0.0000
    409 O         203.8073   93.1317   73.8094 O.3      58      M_A    0.0000
    410 H         202.9168   91.4535   72.2913 H        58      M_A    0.0000
    411 H         202.7504   90.1047   73.3952 H        58      M_A    0.0000
    412 H         204.9606   91.5761   74.4164 H        58      M_A    0.0000
    413 H         203.3463   91.5508   75.1108 H        58      M_A    0.0000
    414 C         204.3937   93.9823   74.7701 C.3      59      M_A    0.0000
    415 C         205.9070   94.0718   74.6001 C.3      59      M_A    0.0000
    416 O         206.3560   95.4062   74.8314 O.3      59      M_A    0.0000
    417 H         203.9532   94.9832   74.6873 H        59      M_A    0.0000
    418 H         204.1439   93.6250   75.7756 H        59      M_A    0.0000
    419 H         206.1818   93.8295   73.5656 H        59      M_A    0.0000
    420 H         206.4370   93.3484   75.2365 H        59      M_A    0.0000
    421 C         207.6494   95.4355   75.3941 C.3      60      M_A    0.0000
    422 C         208.2142   96.8517   75.4444 C.3      60      M_A    0.0000
    423 O         208.4032   97.2647   76.7970 O.3      60      M_A    0.0000
    424 H         207.6152   95.0157   76.4067 H        60      M_A    0.0000
    425 H         208.3135   94.7809   74.8183 H        60      M_A    0.0000
    426 H         207.4964   97.5560   75.0049 H        60      M_A    0.0000
    427 H         209.1386   96.9481   74.8568 H        60      M_A    0.0000
    428 C         207.1767   97.4052   77.4798 C.3      61      M_A    0.0000
    429 C         206.3845   98.6096   76.9807 C.3      61      M_A    0.0000
    430 O         206.3912   99.6496   77.9576 O.3      61      M_A    0.0000
    431 H         206.5816   96.4931   77.3508 H        61      M_A    0.0000
    432 H         207.3652   97.4929   78.5558 H        61      M_A    0.0000
    433 H         205.3330   98.3310   76.8350 H        61      M_A    0.0000
    434 H         206.7463   98.9656   76.0052 H        61      M_A    0.0000
    435 C         206.0396  100.8968   77.3999 C.3      62      M_A    0.0000
    436 C         207.1016  101.4036   76.4291 C.3      62      M_A    0.0000
    437 O         206.8130  102.7428   76.0301 O.3      62      M_A    0.0000
    438 H         205.0783  100.8050   76.8801 H        62      M_A    0.0000
    439 H         205.8799  101.6246   78.2035 H        62      M_A    0.0000
    440 H         207.0889  100.7999   75.5127 H        62      M_A    0.0000
    441 H         208.1161  101.3124   76.8434 H        62      M_A    0.0000
    442 C         207.6634  103.1764   74.9912 C.3      63      M_A    0.0000
    443 C         208.3570  104.4904   75.3372 C.3      63      M_A    0.0000
    444 O         208.4366  105.3296   74.1860 O.3      63      M_A    0.0000
    445 H         208.4155  102.4040   74.7903 H        63      M_A    0.0000
    446 H         207.0856  103.2830   74.0662 H        63      M_A    0.0000
    447 H         209.3913  104.2963   75.6488 H        63      M_A    0.0000
    448 H         207.8726  105.0026   76.1812 H        63      M_A    0.0000
    449 C         208.2466  106.6889   74.5124 C.3      64      M_A    0.0000
    450 C         208.7927  107.0213   75.8975 C.3      64      M_A    0.0000
    451 O         209.0751  108.4162   75.9997 O.3      64      M_A    0.0000
    452 H         208.7406  107.3162   73.7607 H        64      M_A    0.0000
    453 H         207.1797  106.9329   74.4551 H        64      M_A    0.0000
    454 H         209.7460  106.5017   76.0579 H        64      M_A    0.0000
    455 H         208.1194  106.6829   76.6983 H        64      M_A    0.0000
    456 C         207.9368  109.1562   76.3828 C.3      65      M_A    0.0000
    457 C         208.3073  110.3677   77.2325 C.3      65      M_A    0.0000
    458 O         207.3477  111.4094   77.0598 O.3      65      M_A    0.0000
    459 H         207.3980  109.4854   75.4861 H        65      M_A    0.0000
    460 H         207.2444  108.5054   76.9289 H        65      M_A    0.0000
    461 H         209.2695  110.7774   76.8997 H        65      M_A    0.0000
    462 H         208.4353  110.1043   78.2924 H        65      M_A    0.0000
    463 C         207.1573  112.1504   78.2451 C.3      66      M_A    0.0000
    464 C         207.2646  113.6520   77.9986 C.3      66      M_A    0.0000
    465 O         207.1325  114.3687   79.2253 O.3      66      M_A    0.0000
    466 H         206.1729  111.9152   78.6672 H        66      M_A    0.0000
    467 H         207.8908  111.8344   78.9956 H        66      M_A    0.0000
    468 H         206.4391  113.9853   77.3569 H        66      M_A    0.0000
    469 H         208.1915  113.9180   77.4701 H        66      M_A    0.0000
    470 C         208.3671  114.4937   79.8965 C.3      67      M_A    0.0000
    471 C         209.3390  115.3889   79.1342 C.3      67      M_A    0.0000
    472 O         209.1441  116.7557   79.4945 O.3      67      M_A    0.0000
    473 H         208.1963  114.9041   80.8991 H        67      M_A    0.0000
    474 H         208.8033  113.4998   80.0475 H        67      M_A    0.0000
    475 H         209.1409  115.3234   78.0568 H        67      M_A    0.0000
    476 H         210.3839  115.0765   79.2744 H        67      M_A    0.0000
    477 C         208.5332  117.4908   78.4568 C.3      68      M_A    0.0000
    478 C         208.2887  118.9422   78.8577 C.3      68      M_A    0.0000
    479 O         207.6193  119.6422   77.8099 O.3      68      M_A    0.0000
    480 H         209.1687  117.4567   77.5637 H        68      M_A    0.0000
    481 H         207.5899  117.0096   78.1744 H        68      M_A    0.0000
    482 H         209.2473  119.4551   79.0072 H        68      M_A    0.0000
    483 H         207.7459  119.0209   79.8108 H        68      M_A    0.0000
    484 C         207.0700  120.8613   78.2597 C.3      69      M_A    0.0000
    485 C         207.9010  121.4786   79.3803 C.3      69      M_A    0.0000
    486 O         207.7307  122.8951   79.4041 O.3      69      M_A    0.0000
    487 H         207.0045  121.5630   77.4195 H        69      M_A    0.0000
    488 H         206.0401  120.6962   78.5960 H        69      M_A    0.0000
    489 H         208.9680  121.2999   79.1962 H        69      M_A    0.0000
    490 H         207.6774  121.0257   80.3570 H        69      M_A    0.0000
    491 C         206.6063  123.2765   80.1660 C.3      70      M_A    0.0000
    492 C         206.1140  124.6710   79.7915 C.3      70      M_A    0.0000
    493 O         205.8980  125.4544   80.9644 O.3      70      M_A    0.0000
    494 H         205.8005  122.5480   80.0154 H        70      M_A    0.0000
    495 H         206.8558  123.2344   81.2323 H        70      M_A    0.0000
    496 H         205.1429  124.6010   79.2850 H        70      M_A    0.0000
    497 H         206.7930  125.1725   79.0868 H        70      M_A    0.0000
    498 C         206.2249  126.8111   80.7577 C.3      71      M_A    0.0000
    499 C         205.6221  127.3490   79.4637 C.3      71      M_A    0.0000
    500 O         205.3175  128.7367   79.5954 O.3      71      M_A    0.0000
    501 H         205.8662  127.4053   81.6068 H        71      M_A    0.0000
    502 H         207.3146  126.9270   80.7472 H        71      M_A    0.0000
    503 H         204.6705  126.8433   79.2563 H        71      M_A    0.0000
    504 H         206.2689  127.1553   78.5957 H        71      M_A    0.0000
    505 C         206.3722  129.4510   80.2018 C.3      72      M_A    0.0000
    506 C         205.9935  130.9047   80.4677 C.3      72      M_A    0.0000
    507 O         205.7791  131.1162   81.8624 O.3      72      M_A    0.0000
    508 H         206.6476  128.9631   81.1445 H        72      M_A    0.0000
    509 H         207.2622  129.4000   79.5643 H        72      M_A    0.0000
    510 H         205.0435  131.1401   79.9711 H        72      M_A    0.0000
    511 H         206.7359  131.6055   80.0595 H        72      M_A    0.0000
    512 C         205.3928  132.4445   82.1392 C.3      73      M_A    0.0000
    513 C         204.9833  133.1915   80.8737 C.3      73      M_A    0.0000
    514 O         203.9531  134.1351   81.1639 O.3      73      M_A    0.0000
    515 H         204.5588  132.4401   82.8513 H        73      M_A    0.0000
    516 H         206.2151  132.9674   82.6408 H        73      M_A    0.0000
    517 H         204.5603  132.4883   80.1451 H        73      M_A    0.0000
    518 H         205.8427  133.6669   80.3792 H        73      M_A    0.0000
    519 C         203.6682  134.9597   80.0551 C.3      74      M_A    0.0000
    520 C         204.5608  134.6337   78.8617 C.3      74      M_A    0.0000
    521 O         203.9149  134.9978   77.6427 O.3      74      M_A    0.0000
    522 H         202.6156  134.8387   79.7725 H        74      M_A    0.0000
    523 H         203.7847  136.0110   80.3419 H        74      M_A    0.0000
    524 H         204.7321  133.5511   78.8079 H        74      M_A    0.0000
    525 H         205.5536  135.0981   78.9503 H        74      M_A    0.0000
    526 C         203.4624  136.3339   77.6663 C.3      75      M_A    0.0000
    527 C         202.0452  136.4626   77.1167 C.3      75      M_A    0.0000
    528 O         201.5130  137.7537   77.4092 O.3      75      M_A    0.0000
    529 H         203.4946  136.7109   78.6957 H        75      M_A    0.0000
    530 H         204.1519  136.9635   77.0927 H        75      M_A    0.0000
    531 H         201.3854  135.7384   77.6113 H        75      M_A    0.0000
    532 H         201.9979  136.2373   76.0414 H        75      M_A    0.0000
    533 C         200.9414  138.3571   76.2693 C.3      76      M_A    0.0000
    534 C         199.8644  137.4776   75.6418 C.3      76      M_A    0.0000
    535 O         198.8553  138.2830   75.0344 O.3      76      M_A    0.0000
    536 H         200.5102  139.3262   76.5480 H        76      M_A    0.0000
    537 H         201.7280  138.5759   75.5382 H        76      M_A    0.0000
    538 H         199.3617  136.8896   76.4203 H        76      M_A    0.0000
    539 H         200.2868  136.7513   74.9324 H        76      M_A    0.0000
    540 C         198.9648  138.2905   73.6279 C.3      77      M_A    0.0000
    541 C         197.5970  138.3099   72.9526 C.3      77      M_A    0.0000
    542 O         197.7354  138.5600   71.5547 O.3      77      M_A    0.0000
    543 H         199.5443  139.1665   73.3126 H        77      M_A    0.0000
    544 H         199.5383  137.4156   73.3012 H        77      M_A    0.0000
    545 H         196.9935  139.1338   73.3545 H        77      M_A    0.0000
    546 H         197.0282  137.3890   73.1467 H        77      M_A    0.0000
    547 C         196.7664  137.8674   70.7985 C.3      78      M_A    0.0000
    548 C         196.8223  138.2461   69.3218 C.3      78      M_A    0.0000
    549 O         196.2977  137.1912   68.5170 O.3      78      M_A    0.0000
    550 H         196.9223  136.7875   70.9086 H        78      M_A    0.0000
    551 H         195.7699  138.0715   71.2065 H        78      M_A    0.0000
    552 H         197.8658  138.3813   69.0100 H        78      M_A    0.0000
    553 H         196.3153  139.2011   69.1215 H        78      M_A    0.0000
    554 C         196.7882  137.2448   67.1953 C.3      79      M_A    0.0000
    555 C         195.6759  137.0511   66.1693 C.3      79      M_A    0.0000
    556 O         195.9751  137.7639   64.9701 O.3      79      M_A    0.0000
    557 H         197.2799  138.2107   67.0285 H        79      M_A    0.0000
    558 H         197.5653  136.4836   67.0627 H        79      M_A    0.0000
    559 H         194.7374  137.4722   66.5517 H        79      M_A    0.0000
    560 H         195.4779  135.9876   65.9717 H        79      M_A    0.0000
    561 C         194.9902  137.5637   63.9801 C.3      80      M_A    0.0000
    562 C         193.9956  136.4786   64.3808 C.3      80      M_A    0.0000
    563 O         192.8419  136.5264   63.5426 O.3      80      M_A    0.0000
    564 H         194.4570  138.5052   63.8015 H        80      M_A    0.0000
    565 H         195.4732  137.3057   63.0308 H        80      M_A    0.0000
    566 H         193.6403  136.6567   65.4038 H        80      M_A    0.0000
    567 H         194.4546  135.4794   64.3843 H        80      M_A    0.0000
    568 C         193.1496  136.1966   62.2058 C.3      81      M_A    0.0000
    569 C         191.9270  135.6810   61.4530 C.3      81      M_A    0.0000
    570 O         191.8346  136.2995   60.1705 O.3      81      M_A    0.0000
    571 H         193.5511  137.0806   61.6960 H        81      M_A    0.0000
    572 H         193.9505  135.4487   62.1889 H        81      M_A    0.0000
    573 H         191.0121  135.9554   61.9937 H        81      M_A    0.0000
    574 H         191.9219  134.5841   61.3769 H        81      M_A    0.0000
    575 C         190.8849  135.6602   59.3460 C.3      82      M_A    0.0000
    576 C         189.5234  135.5541   60.0259 C.3      82      M_A    0.0000
    577 O         188.4777  135.8042   59.0879 O.3      82      M_A    0.0000
    578 H         190.7857  136.2165   58.4062 H        82      M_A    0.0000
    579 H         191.2514  134.6648   59.0702 H        82      M_A    0.0000
    580 H         189.4320  136.3252   60.8015 H        82      M_A    0.0000
    581 H         189.3908  134.5885   60.5349 H        82      M_A    0.0000
    582 C         188.3909  134.7871   58.1141 C.3      83      M_A    0.0000
    583 C         187.7382  135.2866   56.8289 C.3      83      M_A    0.0000
    584 O         188.5052  134.8882   55.6936 O.3      83      M_A    0.0000
    585 H         189.3958  134.4072   57.8940 H        83      M_A    0.0000
    586 H         187.8298  133.9382   58.5211 H        83      M_A    0.0000
    587 H         187.7224  136.3840   56.8199 H        83      M_A    0.0000
    588 H         186.6905  134.9632   56.7457 H        83      M_A    0.0000
    589 C         187.7563  134.9647   54.5004 C.3      84      M_A    0.0000
    590 C         188.0306  136.2587   53.7405 C.3      84      M_A    0.0000
    591 O         187.5357  136.1667   52.4055 O.3      84      M_A    0.0000
    592 H         187.9973  134.1048   53.8638 H        84      M_A    0.0000
    593 H         186.6888  134.8784   54.7326 H        84      M_A    0.0000
    594 H         189.1128  136.4209   53.6571 H        84      M_A    0.0000
    595 H         187.6274  137.1377   54.2640 H        84      M_A    0.0000
    596 C         186.1741  136.5269   52.3237 C.3      85      M_A    0.0000
    597 C         185.9609  138.0087   52.6168 C.3      85      M_A    0.0000
    598 O         186.0526  138.7723   51.4149 O.3      85      M_A    0.0000
    599 H         185.7946  136.2905   51.3223 H        85      M_A    0.0000
    600 H         185.5912  135.9133   53.0200 H        85      M_A    0.0000
    601 H         186.7563  138.3773   53.2770 H        85      M_A    0.0000
    602 H         185.0136  138.1927   53.1441 H        85      M_A    0.0000
    603 C         186.4267  140.1087   51.6686 C.3      86      M_A    0.0000
    604 C         186.9338  140.8046   50.4093 C.3      86      M_A    0.0000
    605 O         187.1597  142.1904   50.6629 O.3      86      M_A    0.0000
    606 H         185.5669  140.6569   52.0722 H        86      M_A    0.0000
    607 H         187.1935  140.1315   52.4513 H        86      M_A    0.0000
    608 H         186.1704  140.7561   49.6224 H        86      M_A    0.0000
    609 H         187.8291  140.3148   49.9997 H        86      M_A    0.0000
    610 C         188.0561  142.7557   49.7316 C.3      87      M_A    0.0000
    611 C         187.8603  142.1782   48.3333 C.3      87      M_A    0.0000
    612 O         187.6792  143.2265   47.3825 O.3      87      M_A    0.0000
    613 H         187.9153  143.8430   49.7048 H        87      M_A    0.0000
    614 H         189.0857  142.5930   50.0701 H        87      M_A    0.0000
    615 H         186.9446  141.5740   48.3034 H        87      M_A    0.0000
    616 H         188.6818  141.5060   48.0460 H        87      M_A    0.0000
    617 C         188.9108  143.7144   46.8973 C.3      88      M_A    0.0000
    618 C         188.7262  144.5965   45.6664 C.3      88      M_A    0.0000
    619 O         188.8089  145.9751   46.0248 O.3      88      M_A    0.0000
    620 H         189.4132  144.2847   47.6879 H        88      M_A    0.0000
    621 H         189.5724  142.8718   46.6661 H        88      M_A    0.0000
    622 H         187.7231  144.4473   45.2468 H        88      M_A    0.0000
    623 H         189.4355  144.3412   44.8659 H        88      M_A    0.0000
    624 C         187.7283  146.3719   46.8404 C.3      89      M_A    0.0000
    625 C         186.4169  146.4162   46.0624 C.3      89      M_A    0.0000
    626 O         186.0129  147.7671   45.8440 O.3      89      M_A    0.0000
    627 H         187.6340  145.6765   47.6832 H        89      M_A    0.0000
    628 H         187.9432  147.3522   47.2806 H        89      M_A    0.0000
    629 H         185.6176  145.9471   46.6502 H        89      M_A    0.0000
    630 H         186.4772  145.8524   45.1202 H        89      M_A    0.0000
    631 C         187.1192  148.6244   45.6666 C.3      90      M_A    0.0000
    632 C         187.4344  148.8456   44.1905 C.3      90      M_A    0.0000
    633 O         187.9559  150.1575   43.9839 O.3      90      M_A    0.0000
    634 H         186.9139  149.5879   46.1485 H        90      M_A    0.0000
    635 H         187.9910  148.2079   46.1839 H        90      M_A    0.0000
    636 H         186.5124  148.7841   43.5983 H        90      M_A    0.0000
    637 H         188.1078  148.0728   43.7923 H        90      M_A    0.0000
    638 C         188.5773  150.2835   42.7235 C.3      91      M_A    0.0000
    639 C         189.2600  151.6379   42.5607 C.3      91      M_A    0.0000
    640 O         190.1901  151.5999   41.4793 O.3      91      M_A    0.0000
    641 H         189.3147  149.4813   42.5995 H        91      M_A    0.0000
    642 H         187.8334  150.1345   41.9327 H        91      M_A    0.0000
    643 H         189.8432  151.8730   43.4602 H        91      M_A    0.0000
    644 H         188.5331  152.4547   42.4433 H        91      M_A    0.0000
    645 C         190.5780  152.8943   41.0739 C.3      92      M_A    0.0000
    646 C         190.5740  153.8787   42.2394 C.3      92      M_A    0.0000
    647 O         191.3840  155.0134   41.9355 O.3      92      M_A    0.0000
    648 H         191.5800  152.8518   40.6303 H        92      M_A    0.0000
    649 H         189.9103  153.2436   40.2782 H        92      M_A    0.0000
    650 H         191.0206  153.4102   43.1257 H        92      M_A    0.0000
    651 H         189.5543  154.1723   42.5276 H        92      M_A    0.0000
    652 C         190.8139  155.8090   40.9195 C.3      93      M_A    0.0000
    653 C         191.8628  156.6592   40.2093 C.3      93      M_A    0.0000
    654 O         191.2972  157.2924   39.0625 O.3      93      M_A    0.0000
    655 H         190.3084  155.1628   40.1918 H        93      M_A    0.0000
    656 H         190.0338  156.4474   41.3494 H        93      M_A    0.0000
    657 H         192.6740  156.0195   39.8390 H        93      M_A    0.0000
    658 H         192.3307  157.3879   40.8869 H        93      M_A    0.0000
    659 C         192.1115  158.3414   38.5863 C.3      94      M_A    0.0000
    660 C         191.2985  159.3996   37.8471 C.3      94      M_A    0.0000
    661 O         192.0942  160.0271   36.8426 O.3      94      M_A    0.0000
    662 H         192.6393  158.8038   39.4291 H        94      M_A    0.0000
    663 H         192.8890  157.9322   37.9312 H        94      M_A    0.0000
    664 H         190.9985  160.1937   38.5427 H        94      M_A    0.0000
    665 H         190.3679  158.9880   37.4304 H        94      M_A    0.0000
    666 C         191.4380  161.1367   36.2694 C.3      95      M_A    0.0000
    667 C         190.0826  160.7534   35.6834 C.3      95      M_A    0.0000
    668 O         189.5064  161.8622   34.9946 O.3      95      M_A    0.0000
    669 H         191.3040  161.9139   37.0314 H        95      M_A    0.0000
    670 H         192.0759  161.5791   35.4959 H        95      M_A    0.0000
    671 H         189.3854  160.4968   36.4912 H        95      M_A    0.0000
    672 H         190.1482  159.8643   35.0397 H        95      M_A    0.0000
    673 C         188.8829  161.4676   33.7922 C.3      96      M_A    0.0000
    674 C         188.2071  162.6422   33.0917 C.3      96      M_A    0.0000
    675 O         187.4263  162.1823   31.9895 O.3      96      M_A    0.0000
    676 H         189.6294  161.0200   33.1250 H        96      M_A    0.0000
    677 H         188.1528  160.6775   34.0013 H        96      M_A    0.0000
    678 H         188.9665  163.3141   32.6718 H        96      M_A    0.0000
    679 H         187.6102  163.2493   33.7876 H        96      M_A    0.0000
    680 C         186.5234  163.1676   31.5377 C.3      97      M_A    0.0000
    681 C         186.9293  164.5636   31.9999 C.3      97      M_A    0.0000
    682 O         186.2718  165.5584   31.2163 O.3      97      M_A    0.0000
    683 H         186.4742  163.1414   30.4425 H        97      M_A    0.0000
    684 H         185.5140  162.9280   31.8910 H        97      M_A    0.0000
    685 H         188.0056  164.7106   31.8439 H        97      M_A    0.0000
    686 H         186.7516  164.7098   33.0752 H        97      M_A    0.0000
    687 C         187.0957  166.6819   30.9944 C.3      98      M_A    0.0000
    688 C         187.1474  167.5971   32.2138 C.3      98      M_A    0.0000
    689 O         188.3570  168.3538   32.2175 O.3      98      M_A    0.0000
    690 H         188.1087  166.3461   30.7419 H        98      M_A    0.0000
    691 H         186.7337  167.2335   30.1194 H        98      M_A    0.0000
    692 H         187.1576  166.9960   33.1320 H        98      M_A    0.0000
    693 H         186.2618  168.2455   32.2805 H        98      M_A    0.0000
    694 C         188.2382  169.5384   31.4605 C.3      99      M_A    0.0000
    695 C         188.8421  170.7374   32.1849 C.3      99      M_A    0.0000
    696 O         189.4347  171.6374   31.2496 O.3      99      M_A    0.0000
    697 H         188.7356  169.4032   30.4925 H        99      M_A    0.0000
    698 H         187.1819  169.7229   31.2338 H        99      M_A    0.0000
    699 H         189.6515  170.4050   32.8473 H        99      M_A    0.0000
    700 H         188.1074  171.2440   32.8273 H        99      M_A    0.0000
    701 C         190.4095  172.4581   31.8552 C.3     100      M_A    0.0000
    702 C         190.3234  173.8991   31.3622 C.3     100      M_A    0.0000
    703 O         191.1065  174.7566   32.1913 O.3     100      M_A    0.0000
    704 H         190.2814  172.4324   32.9440 H       100      M_A    0.0000
    705 H         191.4063  172.0473   31.6588 H       100      M_A    0.0000
    706 H         189.2892  174.2587   31.4373 H       100      M_A    0.0000
    707 H         190.6044  173.9900   30.3029 H       100      M_A    0.0000
    708 C         192.4651  174.7580   31.8112 C.3     101      M_A    0.0000
    709 C         192.6695  175.3925   30.4390 C.3     101      M_A    0.0000
    710 O         193.7940  176.2705   30.4590 O.3     101      M_A    0.0000
    711 H         193.0521  175.3024   32.5606 H       101      M_A    0.0000
    712 H         192.8472  173.7308   31.8165 H       101      M_A    0.0000
    713 H         191.8006  176.0109   30.1801 H       101      M_A    0.0000
    714 H         192.7573  174.6373   29.6445 H       101      M_A    0.0000
    715 C         194.9815  175.5957   30.8122 C.3     102      M_A    0.0000
    716 C         196.1094  175.8779   29.8245 C.3     102      M_A    0.0000
    717 O         197.3683  175.5145   30.3893 O.3     102      M_A    0.0000
    718 H         195.2881  175.9018   31.8197 H       102      M_A    0.0000
    719 H         194.7866  174.5188   30.8702 H       102      M_A    0.0000
    720 H         196.1642  176.9542   29.6174 H       102      M_A    0.0000
    721 H         195.9413  175.3863   28.8553 H       102      M_A    0.0000
    722 C         198.4482  176.0000   29.6222 C.3     103      M_A    0.0000
    723 C         198.0572  176.2123   28.1630 C.3     103      M_A    0.0000
    724 O         199.0232  177.0285   27.5023 O.3     103      M_A    0.0000
    725 H         198.8028  176.9453   30.0504 H       103      M_A    0.0000
    726 H         199.2900  175.3019   29.6931 H       103      M_A    0.0000
    727 H         197.1051  176.7554   28.1065 H       103      M_A    0.0000
    728 H         197.9000  175.2604   27.6355 H       103      M_A    0.0000
    729 C         199.4867  178.0707   28.3326 C.3     104      M_A    0.0000
    730 C         200.0873  179.2160   27.5234 C.3     104      M_A    0.0000
    731 O         200.0849  180.4207   28.2880 O.3     104      M_A    0.0000
    732 H         198.6568  178.4460   28.9433 H       104      M_A    0.0000
    733 H         200.2257  177.6746   29.0383 H       104      M_A    0.0000
    734 H         199.4694  179.4121   26.6379 H       104      M_A    0.0000
    735 H         201.0926  178.9738   27.1493 H       104      M_A    0.0000
    736 C         201.2316  181.2037   28.0386 C.3     105      M_A    0.0000
    737 C         200.9876  182.2328   26.9392 C.3     105      M_A    0.0000
    738 O         201.5137  183.5031   27.3205 O.3     105      M_A    0.0000
    739 H         201.5315  181.7142   28.9617 H       105      M_A    0.0000
    740 H         202.0691  180.5502   27.7694 H       105      M_A    0.0000
    741 H         199.9093  182.3769   26.7949 H       105      M_A    0.0000
    742 H         201.3862  181.9021   25.9691 H       105      M_A    0.0000
    743 C         201.1430  184.5189   26.4144 C.3     106      M_A    0.0000
    744 C         201.3505  185.9097   27.0057 C.3     106      M_A    0.0000
    745 O         201.6732  186.8449   25.9775 O.3     106      M_A    0.0000
    746 H         201.7307  184.4178   25.4940 H       106      M_A    0.0000
    747 H         200.0961  184.3824   26.1205 H       106      M_A    0.0000
    748 H         202.2065  185.8999   27.6925 H       106      M_A    0.0000
    749 H         200.4847  186.2394   27.5982 H       106      M_A    0.0000
    750 C         201.6834  188.1713   26.4578 C.3     107      M_A    0.0000
    751 C         202.4871  189.0971   25.5500 C.3     107      M_A    0.0000
    752 O         202.1461  190.4597   25.8009 O.3     107      M_A    0.0000
    753 H         200.6528  188.5372   26.5385 H       107      M_A    0.0000
    754 H         202.0902  188.1885   27.4753 H       107      M_A    0.0000
    755 H         202.2324  188.9044   24.5000 H       107      M_A    0.0000
    756 H         203.5695  188.9255   25.6403 H       107      M_A    0.0000
    757 C         203.2314  191.3269   25.5549 C.3     108      M_A    0.0000
    758 C         203.9575  190.9738   24.2606 C.3     108      M_A    0.0000
    759 O         204.4381  192.1553   23.6211 O.3     108      M_A    0.0000
    760 H         202.8673  192.3601   25.5038 H       108      M_A    0.0000
    761 H         203.9256  191.2932   26.4023 H       108      M_A    0.0000
    762 H         203.2586  190.5051   23.5560 H       108      M_A    0.0000
    763 H         204.7634  190.2442   24.4256 H       108      M_A    0.0000
    764 C         205.7057  192.5379   24.1080 C.3     109      M_A    0.0000
    765 C         206.0161  193.9985   23.7957 C.3     109      M_A    0.0000
    766 O         206.6378  194.6260   24.9162 O.3     109      M_A    0.0000
    767 H         205.7430  192.3764   25.1921 H       109      M_A    0.0000
    768 H         206.4744  191.8851   23.6791 H       109      M_A    0.0000
    769 H         205.0838  194.5479   23.6134 H       109      M_A    0.0000
    770 H         206.6198  194.1056   22.8829 H       109      M_A    0.0000
    771 C         207.0355  195.9478   24.6246 C.3     110      M_A    0.0000
    772 C         206.8109  196.2968   23.1566 C.3     110      M_A    0.0000
    773 O         206.6189  197.7023   23.0027 O.3     110      M_A    0.0000
    774 H         206.4754  196.6448   25.2594 H       110      M_A    0.0000
    775 H         208.0907  196.0791   24.8900 H       110      M_A    0.0000
    776 H         205.8912  195.8192   22.7955 H       110      M_A    0.0000
    777 H         207.6229  195.9247   22.5153 H       110      M_A    0.0000
    778 C         207.4113  198.4428   23.9049 C.3     111      M_A    0.0000
    779 C         207.5940  199.8863   23.4465 C.3     111      M_A    0.0000
    780 O         207.1875  200.7900   24.4731 O.3     111      M_A    0.0000
    781 H         206.9443  198.4271   24.8971 H       111      M_A    0.0000
    782 H         208.3853  197.9543   24.0221 H       111      M_A    0.0000
    783 H         206.9466  200.0892   22.5838 H       111      M_A    0.0000
    784 H         208.6226  200.0859   23.1128 H       111      M_A    0.0000
    785 C         207.1627  202.1253   24.0183 C.3     112      M_A    0.0000
    786 C         206.0227  202.3681   23.0342 C.3     112      M_A    0.0000
    787 O         205.7036  203.7576   22.9748 O.3     112      M_A    0.0000
    788 H         207.0594  202.8002   24.8765 H       112      M_A    0.0000
    789 H         208.1248  202.3715   23.5548 H       112      M_A    0.0000
    790 H         205.1147  201.8584   23.3810 H       112      M_A    0.0000
    791 H         206.2437  201.9587   22.0379 H       112      M_A    0.0000
    792 C         206.8417  204.5471   22.7068 C.3     113      M_A    0.0000
    793 C         207.2678  205.3599   23.9254 C.3     113      M_A    0.0000
    794 O         208.5950  205.8553   23.7542 O.3     113      M_A    0.0000
    795 H         207.6672  203.8993   22.3883 H       113      M_A    0.0000
    796 H         206.6348  205.2109   21.8597 H       113      M_A    0.0000
    797 H         207.2917  204.7164   24.8141 H       113      M_A    0.0000
    798 H         206.5577  206.1688   24.1504 H       113      M_A    0.0000
    799 C         208.8961  206.8805   24.6753 C.3     114      M_A    0.0000
    800 C         209.3817  208.1465   23.9761 C.3     114      M_A    0.0000
    801 O         208.7657  209.2991   24.5488 O.3     114      M_A    0.0000
    802 H         208.0042  207.1075   25.2717 H       114      M_A    0.0000
    803 H         209.6512  206.5241   25.3851 H       114      M_A    0.0000
    804 H         209.0811  208.1292   22.9208 H       114      M_A    0.0000
    805 H         210.4784  208.2261   23.9823 H       114      M_A    0.0000
    806 C         209.1357  210.4821   23.8751 C.3     115      M_A    0.0000
    807 C         208.5667  210.5309   22.4606 C.3     115      M_A    0.0000
    808 O         208.3738  211.8831   22.0478 O.3     115      M_A    0.0000
    809 H         208.7835  211.3506   24.4447 H       115      M_A    0.0000
    810 H         210.2285  210.5614   23.8489 H       115      M_A    0.0000
    811 H         207.5763  210.0585   22.4397 H       115      M_A    0.0000
    812 H         209.1888  209.9724   21.7463 H       115      M_A    0.0000
    813 C         207.3666  212.5236   22.7999 C.3     116      M_A    0.0000
    814 C         207.9370  213.6200   23.6940 C.3     116      M_A    0.0000
    815 O         207.4410  214.8967   23.2944 O.3     116      M_A    0.0000
    816 H         206.6216  212.9529   22.1192 H       116      M_A    0.0000
    817 H         206.8320  211.7805   23.4024 H       116      M_A    0.0000
    818 H         209.0278  213.6645   23.5812 H       116      M_A    0.0000
    819 H         207.7458  213.4246   24.7591 H       116      M_A    0.0000
    820 C         207.6556  215.8776   24.2854 C.3     117      M_A    0.0000
    821 C         209.0775  215.8263   24.8358 C.3     117      M_A    0.0000
    822 O         209.5324  217.1385   25.1631 O.3     117      M_A    0.0000
    823 H         207.4589  216.8705   23.8634 H       117      M_A    0.0000
    824 H         206.9290  215.7445   25.0949 H       117      M_A    0.0000
    825 H         209.7622  215.4460   24.0670 H       117      M_A    0.0000
    826 H         209.1641  215.1407   25.6911 H       117      M_A    0.0000
    827 C         210.7588  217.1109   25.8599 C.3     118      M_A    0.0000
    828 C         211.9174  217.5844   24.9878 C.3     118      M_A    0.0000
    829 O         212.8243  218.3775   25.7523 O.3     118      M_A    0.0000
    830 H         210.6850  217.7451   26.7516 H       118      M_A    0.0000
    831 H         210.9482  216.0957   26.2265 H       118      M_A    0.0000
    832 H         211.5411  218.2332   24.1866 H       118      M_A    0.0000
    833 H         212.4285  216.7471   24.4910 H       118      M_A    0.0000
    834 C         214.0623  218.5402   25.0957 C.3     119      M_A    0.0000
    835 C         214.2860  219.9838   24.6564 C.3     119      M_A    0.0000
    836 O         215.6808  220.2533   24.5229 O.3     119      M_A    0.0000
    837 H         214.8730  218.2284   25.7651 H       119      M_A    0.0000
    838 H         214.1090  217.8676   24.2316 H       119      M_A    0.0000
    839 H         213.9121  220.6709   25.4262 H       119      M_A    0.0000
    840 H         213.7353  220.2247   23.7356 H       119      M_A    0.0000
    841 C         215.9199  221.4388   23.7965 C.3     120      M_A    0.0000
    842 C         215.0338  222.5851   24.2740 C.3     120      M_A    0.0000
    843 O         215.7819  223.7982   24.3410 O.3     120      M_A    0.0000
    844 H         216.9748  221.7211   23.8976 H       120      M_A    0.0000
    845 H         215.7585  221.2521   22.7287 H       120      M_A    0.0000
    846 H         214.6806  222.3846   25.2936 H       120      M_A    0.0000
    847 H         214.1332  222.6964   23.6529 H       120      M_A    0.0000
    848 C         215.8069  224.4695   23.1004 C.3     121      M_A    0.0000
    849 C         214.4281  224.9933   22.7111 C.3     121      M_A    0.0000
    850 O         214.1743  226.2463   23.3447 O.3     121      M_A    0.0000
    851 H         216.5173  225.3033   23.1521 H       121      M_A    0.0000
    852 H         216.1900  223.7941   22.3270 H       121      M_A    0.0000
    853 H         213.6520  224.3047   23.0690 H       121      M_A    0.0000
    854 H         214.3039  225.0566   21.6204 H       121      M_A    0.0000
    855 C         214.8929  226.3801   24.5514 C.3     122      M_A    0.0000
    856 C         214.3212  227.4867   25.4323 C.3     122      M_A    0.0000
    857 O         214.7964  227.3529   26.7710 O.3     122      M_A    0.0000
    858 H         214.8720  225.4279   25.0950 H       122      M_A    0.0000
    859 H         215.9477  226.5774   24.3288 H       122      M_A    0.0000
    860 H         213.2286  227.3969   25.4831 H       122      M_A    0.0000
    861 H         214.5290  228.4868   25.0250 H       122      M_A    0.0000
    862 C         214.5832  228.5267   27.5241 C.3     123      M_A    0.0000
    863 C         213.3291  229.2694   27.0738 C.3     123      M_A    0.0000
    864 O         212.9804  230.2777   28.0212 O.3     123      M_A    0.0000
    865 H         214.4969  228.2671   28.5860 H       123      M_A    0.0000
    866 H         215.4611  229.1777   27.4428 H       123      M_A    0.0000
    867 H         212.4786  228.5769   27.0342 H       123      M_A    0.0000
    868 H         213.4362  229.6831   26.0606 H       123      M_A    0.0000
    869 C         213.5009  231.5388   27.6622 C.3     124      M_A    0.0000
    870 C         212.6828  232.6806   28.2575 C.3     124      M_A    0.0000
    871 O         213.4857  233.8526   28.3891 O.3     124      M_A    0.0000
    872 H         214.5408  231.6136   28.0024 H       124      M_A    0.0000
    873 H         213.5340  231.6232   26.5700 H       124      M_A    0.0000
    874 H         212.3551  232.4165   29.2711 H       124      M_A    0.0000
    875 H         211.7679  232.8771   27.6800 H       124      M_A    0.0000
    876 C         213.4993  234.6163   27.2030 C.3     125      M_A    0.0000
    877 C         212.9708  236.0290   27.4319 C.3     125      M_A    0.0000
    878 O         213.7726  236.9799   26.7328 O.3     125      M_A    0.0000
    879 H         214.5229  234.6641   26.8125 H       125      M_A    0.0000
    880 H         212.9064  234.1079   26.4341 H       125      M_A    0.0000
    881 H         213.0442  236.2875   28.4959 H       125      M_A    0.0000
    882 H         211.9077  236.1197   27.1660 H       125      M_A    0.0000
    883 C         213.2345  238.2816   26.8137 C.3     126      M_A    0.0000
    884 C         213.1543  238.7735   28.2554 C.3     126      M_A    0.0000
    885 O         212.7843  240.1511   28.2917 O.3     126      M_A    0.0000
    886 H         213.8530  238.9684   26.2234 H       126      M_A    0.0000
    887 H         212.2414  238.2960   26.3506 H       126      M_A    0.0000
    888 H         214.1425  238.7077   28.7283 H       126      M_A    0.0000
    889 H         212.4798  238.1551   28.8652 H       126      M_A    0.0000
    890 C         211.3838  240.3185   28.3206 C.3     127      M_A    0.0000
    891 C         210.9663  241.4420   29.2643 C.3     127      M_A    0.0000
    892 O         209.7832  242.0802   28.7859 O.3     127      M_A    0.0000
    893 H         211.0220  240.5336   27.3080 H       127      M_A    0.0000
    894 H         210.9091  239.3762   28.6169 H       127      M_A    0.0000
    895 H         211.7441  242.2159   29.2911 H       127      M_A    0.0000
    896 H         210.8480  241.0889   30.2989 H       127      M_A    0.0000
    897 C         209.1589  242.8503   29.7897 C.3     128      M_A    0.0000
    898 C         208.3240  243.9823   29.1992 C.3     128      M_A    0.0000
    899 O         207.1858  244.2418   30.0196 O.3     128      M_A    0.0000
    900 H         208.5208  242.2018   30.4019 H       128      M_A    0.0000
    901 H         209.9198  243.2524   30.4683 H       128      M_A    0.0000
    902 H         207.9343  243.6860   28.2170 H       128      M_A    0.0000
    903 H         208.9205  244.8908   29.0321 H       128      M_A    0.0000
    904 C         207.4846  245.1432   31.0630 C.3     129      M_A    0.0000
    905 C         206.2725  245.9848   31.4499 C.3     129      M_A    0.0000
    906 O         206.6409  247.3568   31.5831 O.3     129      M_A    0.0000
    907 H         207.8395  244.5837   31.9369 H       129      M_A    0.0000
    908 H         208.3162  245.7898   30.7606 H       129      M_A    0.0000
    909 H         205.8973  245.6701   32.4321 H       129      M_A    0.0000
    910 H         205.4381  245.8543   30.7457 H       129      M_A    0.0000
    911 C         205.5934  248.1322   32.1231 C.3     130      M_A    0.0000
    912 C         204.3195  248.0225   31.2911 C.3     130      M_A    0.0000
    913 O         203.1681  248.1479   32.1245 O.3     130      M_A    0.0000
    914 H         205.3920  247.8067   33.1508 H       130      M_A    0.0000
    915 H         205.9123  249.1783   32.1949 H       130      M_A    0.0000
    916 H         204.2588  247.0285   30.8299 H       130      M_A    0.0000
    917 H         204.3035  248.7468   30.4638 H       130      M_A    0.0000
    918 C         203.0408  247.0588   33.0121 C.3     131      M_A    0.0000
    919 C         201.8352  247.2161   33.9336 C.3     131      M_A    0.0000
    920 O         202.2213  247.0316   35.2947 O.3     131      M_A    0.0000
    921 H         202.9470  246.1297   32.4372 H       131      M_A    0.0000
    922 H         203.9595  246.9579   33.6010 H       131      M_A    0.0000
    923 H         201.0941  246.4365   33.7156 H       131      M_A    0.0000
    924 H         201.3235  248.1777   33.7827 H       131      M_A    0.0000
    925 C         201.6419  248.0002   36.1412 C.3     132      M_A    0.0000
    926 C         200.1269  248.0654   35.9748 C.3     132      M_A    0.0000
    927 O         199.5636  248.9922   36.9019 O.3     132      M_A    0.0000
    928 H         201.8888  247.7667   37.1839 H       132      M_A    0.0000
    929 H         202.0899  248.9793   35.9369 H       132      M_A    0.0000
    930 H         199.6830  247.0890   36.2075 H       132      M_A    0.0000
    931 H         199.8353  248.2970   34.9402 H       132      M_A    0.0000
    932 C         199.5732  250.3102   36.3989 C.3     133      M_A    0.0000
    933 C         198.6302  250.4707   35.2105 C.3     133      M_A    0.0000
    934 O         198.1581  251.8146   35.1274 O.3     133      M_A    0.0000
    935 H         199.2841  251.0060   37.1958 H       133      M_A    0.0000
    936 H         200.5950  250.5854   36.1141 H       133      M_A    0.0000
    937 H         197.7425  249.8407   35.3502 H       133      M_A    0.0000
    938 H         199.0944  250.1437   34.2688 H       133      M_A    0.0000
    939 C         199.2118  252.7483   35.2177 C.3     134      M_A    0.0000
    940 C         198.7124  254.1287   35.6330 C.3     134      M_A    0.0000
    941 O         199.7719  254.8874   36.2141 O.3     134      M_A    0.0000
    942 H         199.9537  252.3910   35.9420 H       134      M_A    0.0000
    943 H         199.7330  252.8056   34.2553 H       134      M_A    0.0000
    944 H         197.9430  254.0297   36.4093 H       134      M_A    0.0000
    945 H         198.2392  254.6645   34.7975 H       134      M_A    0.0000
    946 C         200.1985  254.3395   37.4422 C.3     135      M_A    0.0000
    947 C         201.5497  254.9003   37.8746 C.3     135      M_A    0.0000
    948 O         201.3705  256.0544   38.6942 O.3     135      M_A    0.0000
    949 H         199.4481  254.5486   38.2141 H       135      M_A    0.0000
    950 H         200.2486  253.2480   37.3577 H       135      M_A    0.0000
    951 H         202.1153  255.2325   36.9947 H       135      M_A    0.0000
    952 H         202.1713  254.1413   38.3712 H       135      M_A    0.0000
    953 C         202.6008  256.6614   39.0233 C.3     136      M_A    0.0000
    954 C         202.4980  258.1834   39.0318 C.3     136      M_A    0.0000
    955 O         202.9204  258.7040   40.2914 O.3     136      M_A    0.0000
    956 H         202.9289  256.3083   40.0084 H       136      M_A    0.0000
    957 H         203.3704  256.3357   38.3143 H       136      M_A    0.0000
    958 H         201.4509  258.4879   38.9085 H       136      M_A    0.0000
    959 H         203.0510  258.6387   38.1975 H       136      M_A    0.0000
    960 C         202.8858  260.1142   40.3155 C.3     137      M_A    0.0000
    961 C         201.4940  260.6416   40.6503 C.3     137      M_A    0.0000
    962 O         201.5865  261.8016   41.4760 O.3     137      M_A    0.0000
    963 H         203.6077  260.4834   41.0539 H       137      M_A    0.0000
    964 H         203.2182  260.5046   39.3470 H       137      M_A    0.0000
    965 H         200.9407  259.8932   41.2317 H       137      M_A    0.0000
    966 H         200.8969  260.8322   39.7467 H       137      M_A    0.0000
    967 C         200.3156  262.3362   41.7754 C.3     138      M_A    0.0000
    968 C         200.3845  263.3690   42.8960 C.3     138      M_A    0.0000
    969 O         199.2492  264.2318   42.8482 O.3     138      M_A    0.0000
    970 H         199.8932  262.7969   40.8743 H       138      M_A    0.0000
    971 H         199.6323  261.5238   42.0477 H       138      M_A    0.0000
    972 H         201.2645  264.0103   42.7595 H       138      M_A    0.0000
    973 H         200.4968  262.8989   43.8837 H       138      M_A    0.0000
    974 C         199.2522  265.0409   41.6925 C.3     139      M_A    0.0000
    975 C         197.9621  265.8442   41.5592 C.3     139      M_A    0.0000
    976 O         197.1294  265.2842   40.5450 O.3     139      M_A    0.0000
    977 H         200.1098  265.7234   41.7282 H       139      M_A    0.0000
    978 H         199.4028  264.4129   40.8071 H       139      M_A    0.0000
    979 H         198.1912  266.8685   41.2385 H       139      M_A    0.0000
    980 H         197.4311  265.9336   42.5180 H       139      M_A    0.0000
    981 C         195.8274  265.0207   41.0201 C.3     140      M_A    0.0000
    982 C         195.8374  264.0364   42.1856 C.3     140      M_A    0.0000
    983 O         194.6997  264.2431   43.0216 O.3     140      M_A    0.0000
    984 H         195.3578  265.9604   41.3349 H       140      M_A    0.0000
    985 H         195.2104  264.6346   40.2009 H       140      M_A    0.0000
    986 H         196.7185  264.2124   42.8158 H       140      M_A    0.0000
    987 H         195.9069  262.9935   41.8439 H       140      M_A    0.0000
    988 C         195.0698  264.5019   44.3582 C.3     141      M_A    0.0000
    989 C         195.2738  265.9924   44.6117 C.3     141      M_A    0.0000
    990 O         194.8096  266.3440   45.9142 O.3     141      M_A    0.0000
    991 H         194.2952  264.1158   45.0316 H       141      M_A    0.0000
    992 H         195.9832  263.9463   44.5987 H       141      M_A    0.0000
    993 H         194.6741  266.5774   43.9028 H       141      M_A    0.0000
    994 H         196.3186  266.2979   44.4561 H       141      M_A    0.0000
    995 C         195.2621  267.6214   46.3064 C.3     142      M_A    0.0000
    996 C         194.2417  268.3399   47.1837 C.3     142      M_A    0.0000
    997 O         194.8599  269.4168   47.8866 O.3     142      M_A    0.0000
    998 H         196.2097  267.5209   46.8493 H       142      M_A    0.0000
    999 H         195.4866  268.2190   45.4157 H       142      M_A    0.0000
   1000 H         193.8573  267.6534   47.9487 H       142      M_A    0.0000
   1001 H         193.3684  268.6785   46.6075 H       142      M_A    0.0000
   1002 C         193.9081  270.3069   48.4269 C.3     143      M_A    0.0000
   1003 C         192.6161  269.5918   48.8098 C.3     143      M_A    0.0000
   1004 O         191.9448  270.2999   49.8509 O.3     143      M_A    0.0000
   1005 H         194.3318  270.8011   49.3094 H       143      M_A    0.0000
   1006 H         193.7020  271.1046   47.7041 H       143      M_A    0.0000
   1007 H         192.8449  268.5968   49.2123 H       143      M_A    0.0000
   1008 H         191.9618  269.4292   47.9411 H       143      M_A    0.0000
   1009 C         190.5454  270.1355   49.7806 C.3     144      M_A    0.0000
   1010 C         189.8356  270.8111   50.9498 C.3     144      M_A    0.0000
   1011 O         188.4779  271.0923   50.6127 O.3     144      M_A    0.0000
   1012 H         190.1771  270.5517   48.8352 H       144      M_A    0.0000
   1013 H         190.3036  269.0670   49.7544 H       144      M_A    0.0000
   1014 H         190.3064  271.7790   51.1639 H       144      M_A    0.0000
   1015 H         189.9111  270.2210   51.8746 H       144      M_A    0.0000
   1016 C         187.6837  269.9264   50.6144 C.3     145      M_A    0.0000
   1017 C         186.2717  270.2028   51.1216 C.3     145      M_A    0.0000
   1018 O         185.3046  269.6865   50.2085 O.3     145      M_A    0.0000
   1019 H         187.6370  269.5164   49.5983 H       145      M_A    0.0000
   1020 H         188.1651  269.1570   51.2285 H       145      M_A    0.0000
   1021 H         186.0986  271.2852   51.1738 H       145      M_A    0.0000
   1022 H         186.1164  269.8171   52.1396 H       145      M_A    0.0000
   1023 C         184.0870  269.3784   50.8511 C.3     146      M_A    0.0000
   1024 C         183.4041  270.6270   51.4007 C.3     146      M_A    0.0000
   1025 O         182.0632  270.7133   50.9206 O.3     146      M_A    0.0000
   1026 H         183.4189  268.8741   50.1426 H       146      M_A    0.0000
   1027 H         184.2708  268.6589   51.6571 H       146      M_A    0.0000
   1028 H         183.9194  271.5253   51.0376 H       146      M_A    0.0000
   1029 H         183.4466  270.6707   52.4986 H       146      M_A    0.0000
   1030 C         181.2681  271.5514   51.7303 C.3     147      M_A    0.0000
   1031 C         180.1266  272.1853   50.9413 C.3     147      M_A    0.0000
   1032 O         178.9592  272.2934   51.7544 O.3     147      M_A    0.0000
   1033 H         180.8605  270.9699   52.5660 H       147      M_A    0.0000
   1034 H         181.8966  272.3278   52.1810 H       147      M_A    0.0000
   1035 H         179.8541  271.5413   50.0956 H       147      M_A    0.0000
   1036 H         180.4128  273.1554   50.5096 H       147      M_A    0.0000
   1037 C         178.4298  271.0281   52.0848 C.3     148      M_A    0.0000
   1038 C         177.3129  271.1330   53.1185 C.3     148      M_A    0.0000
   1039 O         176.1476  270.4465   52.6640 O.3     148      M_A    0.0000
   1040 H         178.0483  270.5450   51.1772 H       148      M_A    0.0000
   1041 H         179.2329  270.3815   52.4562 H       148      M_A    0.0000
   1042 H         177.0207  272.1829   53.2478 H       148      M_A    0.0000
   1043 H         177.6331  270.7787   54.1090 H       148      M_A    0.0000
   1044 C         175.1967  270.2865   53.6937 C.3     149      M_A    0.0000
   1045 C         173.8351  269.8669   53.1483 C.3     149      M_A    0.0000
   1046 O         173.0806  269.1953   54.1559 O.3     149      M_A    0.0000
   1047 H         175.5558  269.5352   54.4073 H       149      M_A    0.0000
   1048 H         175.1088  271.2215   54.2587 H       149      M_A    0.0000
   1049 H         173.9660  269.1469   52.3305 H       149      M_A    0.0000
   1050 H         173.2811  270.7168   52.7241 H       149      M_A    0.0000
   1051 C         171.6925  269.3784   53.9829 C.3     150      M_A    0.0000
   1052 C         170.9156  268.0880   54.2246 C.3     150      M_A    0.0000
   1053 O         169.5884  268.3799   54.6597 O.3     150      M_A    0.0000
   1054 H         171.3394  270.1561   54.6708 H       150      M_A    0.0000
   1055 H         171.4968  269.7572   52.9732 H       150      M_A    0.0000
   1056 H         171.3858  267.5149   55.0339 H       150      M_A    0.0000
   1057 H         170.9192  267.4329   53.3415 H       150      M_A    0.0000
   1058 C         168.7429  267.2552   54.5586 C.3     151      M_A    0.0000
   1059 C         167.2694  267.6465   54.6140 C.3     151      M_A    0.0000
   1060 O         166.4802  266.7219   53.8671 O.3     151      M_A    0.0000
   1061 H         168.9494  266.7278   53.6195 H       151      M_A    0.0000
   1062 H         168.9792  266.5468   55.3607 H       151      M_A    0.0000
   1063 H         167.1250  268.6264   54.1415 H       151      M_A    0.0000
   1064 H         166.9082  267.7473   55.6477 H       151      M_A    0.0000
   1065 C         165.1826  267.2177   53.6205 C.3     152      M_A    0.0000
   1066 C         164.1112  266.1703   53.9076 C.3     152      M_A    0.0000
   1067 O         162.8105  266.7485   53.8089 O.3     152      M_A    0.0000
   1068 H         165.0077  268.1043   54.2417 H       152      M_A    0.0000
   1069 H         165.1129  267.5587   52.5813 H       152      M_A    0.0000
   1070 H         164.2096  265.8081   54.9389 H       152      M_A    0.0000
   1071 H         164.2139  265.2873   53.2604 H       152      M_A    0.0000
   1072 C         162.5972  267.3509   52.5511 C.3     153      M_A    0.0000
   1073 C         162.2386  266.3222   51.4832 C.3     153      M_A    0.0000
   1074 O         160.8426  266.0299   51.5223 O.3     153      M_A    0.0000
   1075 H         161.7933  268.0921   52.6342 H       153      M_A    0.0000
   1076 H         163.4932  267.9091   52.2565 H       153      M_A    0.0000
   1077 H         162.7569  265.3764   51.6864 H       153      M_A    0.0000
   1078 H         162.5597  266.6396   50.4805 H       153      M_A    0.0000
   1079 C         160.3052  266.2042   52.8151 C.3     154      M_A    0.0000
   1080 C         160.2238  264.8856   53.5779 C.3     154      M_A    0.0000
   1081 O         159.9254  265.1233   54.9527 O.3     154      M_A    0.0000
   1082 H         160.9247  266.9160   53.3738 H       154      M_A    0.0000
   1083 H         159.3125  266.6623   52.7396 H       154      M_A    0.0000
   1084 H         161.1983  264.3812   53.5572 H       154      M_A    0.0000
   1085 H         159.5068  264.1884   53.1208 H       154      M_A    0.0000
   1086 C         159.5015  263.9488   55.6093 C.3     155      M_A    0.0000
   1087 C         160.4062  262.7627   55.2901 C.3     155      M_A    0.0000
   1088 O         160.5189  261.9033   56.4236 O.3     155      M_A    0.0000
   1089 H         159.4881  264.1217   56.6921 H       155      M_A    0.0000
   1090 H         158.4666  263.7252   55.3266 H       155      M_A    0.0000
   1091 H         161.4216  263.1159   55.0696 H       155      M_A    0.0000
   1092 H         160.0700  262.2161   54.3972 H       155      M_A    0.0000
   1093 C         159.2963  261.7861   57.1178 C.3     156      M_A    0.0000
   1094 C         158.8237  260.3376   57.1936 C.3     156      M_A    0.0000
   1095 O         157.7858  260.2026   58.1633 O.3     156      M_A    0.0000
   1096 H         159.4129  262.1896   58.1308 H       156      M_A    0.0000
   1097 H         158.5379  262.4091   56.6302 H       156      M_A    0.0000
   1098 H         159.6458  259.6935   57.5309 H       156      M_A    0.0000
   1099 H         158.5147  259.9527   56.2109 H       156      M_A    0.0000
   1100 C         156.8641  259.1947   57.8098 C.3     157      M_A    0.0000
   1101 C         156.2346  258.5456   59.0384 C.3     157      M_A    0.0000
   1102 O         154.8695  258.2176   58.7839 O.3     157      M_A    0.0000
   1103 H         156.0789  259.6254   57.1769 H       157      M_A    0.0000
   1104 H         157.3665  258.4392   57.1952 H       157      M_A    0.0000
   1105 H         156.2297  259.2557   59.8751 H       157      M_A    0.0000
   1106 H         156.8060  257.6707   59.3809 H       157      M_A    0.0000
   1107 C         154.3526  257.3314   59.7524 C.3     158      M_A    0.0000
   1108 C         152.8272  257.3110   59.7457 C.3     158      M_A    0.0000
   1109 O         152.3268  257.0684   61.0597 O.3     158      M_A    0.0000
   1110 H         154.7359  256.3215   59.5630 H       158      M_A    0.0000
   1111 H         154.7253  257.6148   60.7432 H       158      M_A    0.0000
   1112 H         152.4673  256.4832   59.1215 H       158      M_A    0.0000
   1113 H         152.4045  258.2291   59.3126 H       158      M_A    0.0000
   1114 C         151.0748  257.6847   61.2673 C.3     159      M_A    0.0000
   1115 C         150.2253  257.6842   60.0002 C.3     159      M_A    0.0000
   1116 O         148.8390  257.7561   60.3301 O.3     159      M_A    0.0000
   1117 H         150.5406  257.1621   62.0699 H       159      M_A    0.0000
   1118 H         151.2266  258.7099   61.6235 H       159      M_A    0.0000
   1119 H         150.3640  256.7402   59.4577 H       159      M_A    0.0000
   1120 H         150.5202  258.4842   59.3058 H       159      M_A    0.0000
   1121 C         148.0506  258.1062   59.2138 C.3     160      M_A    0.0000
   1122 C         146.7492  258.7852   59.6291 C.3     160      M_A    0.0000
   1123 O         145.6355  258.1555   58.9974 O.3     160      M_A    0.0000
   1124 H         148.6229  258.7745   58.5592 H       160      M_A    0.0000
   1125 H         147.8397  257.2097   58.6197 H       160      M_A    0.0000
   1126 H         146.7468  259.8284   59.2885 H       160      M_A    0.0000
   1127 H         146.6317  258.8181   60.7219 H       160      M_A    0.0000
   1128 C         144.6210  259.0816   58.6757 C.3     161      M_A    0.0000
   1129 C         143.7025  259.3520   59.8634 C.3     161      M_A    0.0000
   1130 O         142.3440  259.0952   59.5107 O.3     161      M_A    0.0000
   1131 H         145.0782  260.0208   58.3417 H       161      M_A    0.0000
   1132 H         144.0418  258.7081   57.8237 H       161      M_A    0.0000
   1133 H         143.7532  260.4124   60.1412 H       161      M_A    0.0000
   1134 H         144.0050  258.7854   60.7559 H       161      M_A    0.0000
   1135 C         142.0185  257.7280   59.6338 C.3     162      M_A    0.0000
   1136 C         141.2882  257.4342   60.9406 C.3     162      M_A    0.0000
   1137 O         139.9755  256.9409   60.6773 O.3     162      M_A    0.0000
   1138 H         141.3931  257.4249   58.7855 H       162      M_A    0.0000
   1139 H         142.9323  257.1270   59.5649 H       162      M_A    0.0000
   1140 H         141.1594  258.3615   61.5133 H       162      M_A    0.0000
   1141 H         141.8577  256.7504   61.5865 H       162      M_A    0.0000
   1142 C         139.5757  255.9776   61.6274 C.3     163      M_A    0.0000
   1143 C         138.6210  256.5641   62.6626 C.3     163      M_A    0.0000
   1144 O         137.5694  255.6432   62.9483 O.3     163      M_A    0.0000
   1145 H         139.0921  255.1383   61.1133 H       163      M_A    0.0000
   1146 H         140.4614  255.5602   62.1196 H       163      M_A    0.0000
   1147 H         138.1405  257.4648   62.2598 H       163      M_A    0.0000
   1148 H         139.1460  256.8781   63.5764 H       163      M_A    0.0000
   1149 C         136.9158  255.9511   64.1600 C.3     164      M_A    0.0000
   1150 C         135.3988  255.8629   64.0245 C.3     164      M_A    0.0000
   1151 O         134.7933  255.6976   65.3059 O.3     164      M_A    0.0000
   1152 H         137.2570  255.2629   64.9427 H       164      M_A    0.0000
   1153 H         137.2109  256.9536   64.4900 H       164      M_A    0.0000
   1154 H         135.1270  254.9755   63.4388 H       164      M_A    0.0000
   1155 H         134.9820  256.7263   63.4860 H       164      M_A    0.0000
   1156 C         133.5881  256.4227   65.4150 C.3     165      M_A    0.0000
   1157 C         132.4476  255.5524   65.9340 C.3     165      M_A    0.0000
   1158 O         131.5286  256.3366   66.6931 O.3     165      M_A    0.0000
   1159 H         133.7364  257.2761   66.0876 H       165      M_A    0.0000
   1160 H         133.3282  256.8489   64.4394 H       165      M_A    0.0000
   1161 H         132.8409  254.7903   66.6188 H       165      M_A    0.0000
   1162 H         131.9436  255.0066   65.1233 H       165      M_A    0.0000
   1163 C         130.3038  255.6652   66.8916 C.3     166      M_A    0.0000
   1164 C         129.3816  256.4341   67.8327 C.3     166      M_A    0.0000
   1165 O         128.1590  255.7234   68.0225 O.3     166      M_A    0.0000
   1166 H         129.8069  255.5209   65.9246 H       166      M_A    0.0000
   1167 H         130.4971  254.6606   67.2845 H       166      M_A    0.0000
   1168 H         129.1105  257.3986   67.3848 H       166      M_A    0.0000
   1169 H         129.8700  256.6661   68.7902 H       166      M_A    0.0000
   1170 C         128.3822  254.4023   68.4642 C.3     167      M_A    0.0000
   1171 C         128.0390  254.2323   69.9409 C.3     167      M_A    0.0000
   1172 O         126.6323  254.0626   70.1088 O.3     167      M_A    0.0000
   1173 H         127.7793  253.7108   67.8634 H       167      M_A    0.0000
   1174 H         129.4275  254.1277   68.2822 H       167      M_A    0.0000
   1175 H         128.3075  255.1414   70.4940 H       167      M_A    0.0000
   1176 H         128.6057  253.4118   70.4042 H       167      M_A    0.0000
   1177 C         126.0267  255.2108   70.6612 C.3     168      M_A    0.0000
   1178 C         124.7147  254.8773   71.3646 C.3     168      M_A    0.0000
   1179 O         124.4479  255.8257   72.3967 O.3     168      M_A    0.0000
   1180 H         126.7174  255.6803   71.3720 H       168      M_A    0.0000
   1181 H         125.8576  255.9510   69.8710 H       168      M_A    0.0000
   1182 H         124.7929  253.8998   71.8575 H       168      M_A    0.0000
   1183 H         123.8761  254.7990   70.6576 H       168      M_A    0.0000
   1184 C         123.1067  255.7672   72.8303 C.3     169      M_A    0.0000
   1185 C         122.5365  254.3564   72.7214 C.3     169      M_A    0.0000
   1186 O         121.7808  254.0335   73.8877 O.3     169      M_A    0.0000
   1187 H         123.0450  256.1108   73.8699 H       169      M_A    0.0000
   1188 H         122.5021  256.4686   72.2441 H       169      M_A    0.0000
   1189 H         123.3539  253.6258   72.6721 H       169      M_A    0.0000
   1190 H         121.9462  254.2200   71.8037 H       169      M_A    0.0000
   1191 C         120.9202  252.9370   73.6695 C.3     170      M_A    0.0000
   1192 C         121.5480  251.8985   72.7451 C.3     170      M_A    0.0000
   1193 O         121.2694  250.5804   73.2151 O.3     170      M_A    0.0000
   1194 H         120.6714  252.4725   74.6313 H       170      M_A    0.0000
   1195 H         119.9717  253.2941   73.2525 H       170      M_A    0.0000
   1196 H         122.6404  252.0034   72.7525 H       170      M_A    0.0000
   1197 H         121.2333  252.0327   71.7001 H       170      M_A    0.0000
   1198 C         121.0585  249.6771   72.1521 C.3     171      M_A    0.0000
   1199 C         120.8409  248.2527   72.6530 C.3     171      M_A    0.0000
   1200 O         119.9240  247.5616   71.8059 O.3     171      M_A    0.0000
   1201 H         120.1884  249.9996   71.5676 H       171      M_A    0.0000
   1202 H         121.9128  249.7133   71.4666 H       171      M_A    0.0000
   1203 H         120.3833  248.2731   73.6502 H       171      M_A    0.0000
   1204 H         121.7879  247.7041   72.7603 H       171      M_A    0.0000
   1205 C         119.9612  246.1673   72.0178 C.3     172      M_A    0.0000
   1206 C         120.0000  245.8201   73.5028 C.3     172      M_A    0.0000
   1207 O         119.0481  244.7998   73.8006 O.3     172      M_A    0.0000
   1208 H         119.0817  245.7050   71.5537 H       172      M_A    0.0000
   1209 H         120.8315  245.7427   71.5046 H       172      M_A    0.0000
   1210 H         119.7102  246.6949   74.0987 H       172      M_A    0.0000
   1211 H         121.0108  245.5428   73.8352 H       172      M_A    0.0000
   1212 C         119.0823  243.7561   72.8521 C.3     173      M_A    0.0000
   1213 C         119.0411  242.3838   73.5170 C.3     173      M_A    0.0000
   1214 O         118.1053  241.5363   72.8524 O.3     173      M_A    0.0000
   1215 H         118.2327  243.8595   72.1664 H       173      M_A    0.0000
   1216 H         119.9822  243.8530   72.2342 H       173      M_A    0.0000
   1217 H         118.6881  242.4804   74.5517 H       173      M_A    0.0000
   1218 H         120.0379  241.9231   73.5740 H       173      M_A    0.0000
   1219 C         118.5053  240.1838   72.8855 C.3     174      M_A    0.0000
   1220 C         118.0204  239.4798   74.1490 C.3     174      M_A    0.0000
   1221 O         116.9886  238.5460   73.8339 O.3     174      M_A    0.0000
   1222 H         118.1134  239.6666   72.0015 H       174      M_A    0.0000
   1223 H         119.5970  240.1236   72.8111 H       174      M_A    0.0000
   1224 H         117.5751  240.2103   74.8363 H       174      M_A    0.0000
   1225 H         118.8457  239.0040   74.6984 H       174      M_A    0.0000
   1226 C         116.3776  238.0265   74.9946 C.3     175      M_A    0.0000
   1227 C         114.8610  237.9480   74.8505 C.3     175      M_A    0.0000
   1228 O         114.3648  236.7529   75.4515 O.3     175      M_A    0.0000
   1229 H         116.7806  237.0279   75.2021 H       175      M_A    0.0000
   1230 H         116.6466  238.6459   75.8577 H       175      M_A    0.0000
   1231 H         114.5888  237.8945   73.7886 H       175      M_A    0.0000
   1232 H         114.3619  238.8422   75.2511 H       175      M_A    0.0000
   1233 C         113.0630  236.9252   75.9671 C.3     176      M_A    0.0000
   1234 C         112.2750  235.6190   75.9659 C.3     176      M_A    0.0000
   1235 O         111.9085  235.2574   77.2966 O.3     176      M_A    0.0000
   1236 H         113.1254  237.3176   76.9893 H       176      M_A    0.0000
   1237 H         112.5363  237.6882   75.3827 H       176      M_A    0.0000
   1238 H         112.9042  234.8033   75.5876 H       176      M_A    0.0000
   1239 H         111.4000  235.6659   75.3016 H       176      M_A    0.0000
   1240 C         110.9016  234.2694   77.3144 C.3     177      M_A    0.0000
   1241 C         111.4741  232.8721   77.0978 C.3     177      M_A    0.0000
   1242 O         110.7243  231.9071   77.8343 O.3     177      M_A    0.0000
   1243 H         110.3721  234.3065   78.2740 H       177      M_A    0.0000
   1244 H         110.1525  234.4970   76.5475 H       177      M_A    0.0000
   1245 H         112.5002  232.8247   77.4841 H       177      M_A    0.0000
   1246 H         111.5348  232.6121   76.0310 H       177      M_A    0.0000
   1247 C         109.3354  232.1350   77.7371 C.3     178      M_A    0.0000
   1248 C         108.5641  230.8417   77.4930 C.3     178      M_A    0.0000
   1249 O         108.2517  230.2068   78.7320 O.3     178      M_A    0.0000
   1250 H         108.9789  232.6087   78.6597 H       178      M_A    0.0000
   1251 H         109.1382  232.8535   76.9334 H       178      M_A    0.0000
   1252 H         109.1889  230.1340   76.9334 H       178      M_A    0.0000
   1253 H         107.6645  231.0070   76.8826 H       178      M_A    0.0000
   1254 C         107.2586  229.2165   78.5794 C.3     179      M_A    0.0000
   1255 C         107.5412  228.3091   77.3860 C.3     179      M_A    0.0000
   1256 O         107.9097  227.0039   77.8292 O.3     179      M_A    0.0000
   1257 H         107.2007  228.6151   79.4946 H       179      M_A    0.0000
   1258 H         106.2788  229.6951   78.4702 H       179      M_A    0.0000
   1259 H         108.3975  228.6945   76.8181 H       179      M_A    0.0000
   1260 H         106.6958  228.2764   76.6836 H       179      M_A    0.0000
   1261 C         107.0394  226.5235   78.8302 C.3     180      M_A    0.0000
   1262 C         106.6121  225.0829   78.5667 C.3     180      M_A    0.0000
   1263 O         106.4915  224.3667   79.7949 O.3     180      M_A    0.0000
   1264 H         107.5357  226.5885   79.8060 H       180      M_A    0.0000
   1265 H         106.1609  227.1755   78.8945 H       180      M_A    0.0000
   1266 H         107.3838  224.5651   77.9830 H       180      M_A    0.0000
   1267 H         105.6887  225.0289   77.9721 H       180      M_A    0.0000
   1268 C         105.7102  223.2012   79.6490 C.3     181      M_A    0.0000
   1269 C         105.9025  222.5571   78.2796 C.3     181      M_A    0.0000
   1270 O         105.7778  221.1389   78.3743 O.3     181      M_A    0.0000
   1271 H         105.9764  222.4839   80.4347 H       181      M_A    0.0000
   1272 H         104.6542  223.4465   79.8095 H       181      M_A    0.0000
   1273 H         106.9185  222.7530   77.9139 H       181      M_A    0.0000
   1274 H         105.2188  222.9761   77.5271 H       181      M_A    0.0000
   1275 C         105.5010  220.5509   77.1222 C.3     182      M_A    0.0000
   1276 C         105.9676  219.0997   77.0615 C.3     182      M_A    0.0000
   1277 O         105.1738  218.3598   76.1350 O.3     182      M_A    0.0000
   1278 H         104.4229  220.6002   76.9273 H       182      M_A    0.0000
   1279 H         105.9782  221.1378   76.3292 H       182      M_A    0.0000
   1280 H         105.8266  218.6207   78.0388 H       182      M_A    0.0000
   1281 H         107.0401  219.0207   76.8321 H       182      M_A    0.0000
   1282 C         105.6384  218.5060   74.8109 C.3     183      M_A    0.0000
   1283 C         105.6967  217.1685   74.0795 C.3     183      M_A    0.0000
   1284 O         106.8652  217.0978   73.2636 O.3     183      M_A    0.0000
   1285 H         104.9800  219.1949   74.2682 H       183      M_A    0.0000
   1286 H         106.6273  218.9782   74.8205 H       183      M_A    0.0000
   1287 H         104.8404  217.0770   73.3992 H       183      M_A    0.0000
   1288 H         105.6320  216.3167   74.7718 H       183      M_A    0.0000
   1289 C         107.5652  215.8875   73.4520 C.3     184      M_A    0.0000
   1290 C         106.6757  214.6732   73.2037 C.3     184      M_A    0.0000
   1291 O         107.4521  213.5775   72.7217 O.3     184      M_A    0.0000
   1292 H         108.4281  215.8571   72.7758 H       184      M_A    0.0000
   1293 H         107.9762  215.8572   74.4674 H       184      M_A    0.0000
   1294 H         105.9435  214.9007   72.4185 H       184      M_A    0.0000
   1295 H         106.0945  214.3986   74.0959 H       184      M_A    0.0000
   1296 C         108.6842  213.4679   73.4000 C.3     185      M_A    0.0000
   1297 C         109.2598  212.0582   73.3064 C.3     185      M_A    0.0000
   1298 O         110.6828  212.0938   73.4036 O.3     185      M_A    0.0000
   1299 H         109.3972  214.1862   72.9778 H       185      M_A    0.0000
   1300 H         108.5510  213.7559   74.4490 H       185      M_A    0.0000
   1301 H         109.0290  211.6248   72.3249 H       185      M_A    0.0000
   1302 H         108.8179  211.3820   74.0526 H       185      M_A    0.0000
   1303 C         111.2599  210.8356   73.1314 C.3     186      M_A    0.0000
   1304 C         112.1953  210.3867   74.2498 C.3     186      M_A    0.0000
   1305 O         112.4152  208.9787   74.1799 O.3     186      M_A    0.0000
   1306 H         110.4650  210.0925   72.9948 H       186      M_A    0.0000
   1307 H         111.7993  210.8792   72.1785 H       186      M_A    0.0000
   1308 H         111.7299  210.5775   75.2253 H       186      M_A    0.0000
   1309 H         113.1415  210.9469   74.2457 H       186      M_A    0.0000
   1310 C         112.7040  208.5565   72.8651 C.3     187      M_A    0.0000
   1311 C         113.4257  207.2127   72.8465 C.3     187      M_A    0.0000
   1312 O         113.1561  206.5195   71.6289 O.3     187      M_A    0.0000
   1313 H         111.7710  208.4822   72.2936 H       187      M_A    0.0000
   1314 H         113.3072  209.3197   72.3603 H       187      M_A    0.0000
   1315 H         113.0471  206.5740   73.6547 H       187      M_A    0.0000
   1316 H         114.5058  207.3222   73.0216 H       187      M_A    0.0000
   1317 C         114.1111  205.5126   71.3748 C.3     188      M_A    0.0000
   1318 C         113.4939  204.3119   70.6645 C.3     188      M_A    0.0000
   1319 O         114.4996  203.5695   69.9764 O.3     188      M_A    0.0000
   1320 H         114.9221  205.9262   70.7634 H       188      M_A    0.0000
   1321 H         114.5733  205.2007   72.3183 H       188      M_A    0.0000
   1322 H         112.7859  204.6539   69.8989 H       188      M_A    0.0000
   1323 H         112.9188  203.6761   71.3532 H       188      M_A    0.0000
   1324 C         115.1220  202.6231   70.8174 C.3     189      M_A    0.0000
   1325 C         115.3658  201.2996   70.0990 C.3     189      M_A    0.0000
   1326 O         116.1654  200.4354   70.9051 O.3     189      M_A    0.0000
   1327 H         116.0752  203.0281   71.1782 H       189      M_A    0.0000
   1328 H         114.5048  202.4644   71.7089 H       189      M_A    0.0000
   1329 H         115.9348  201.4741   69.1770 H       189      M_A    0.0000
   1330 H         114.4261  200.8169   69.7938 H       189      M_A    0.0000
   1331 C         115.7346  199.0944   70.8251 C.3     190      M_A    0.0000
   1332 C         115.5746  198.6354   69.3790 C.3     190      M_A    0.0000
   1333 O         116.1059  197.3218   69.2119 O.3     190      M_A    0.0000
   1334 H         116.4567  198.4488   71.3393 H       190      M_A    0.0000
   1335 H         114.7889  198.9812   71.3673 H       190      M_A    0.0000
   1336 H         116.1534  199.2885   68.7135 H       190      M_A    0.0000
   1337 H         114.5306  198.6981   69.0396 H       190      M_A    0.0000
   1338 C         117.5060  197.2954   69.3830 C.3     191      M_A    0.0000
   1339 C         118.0287  195.8737   69.5642 C.3     191      M_A    0.0000
   1340 O         118.3921  195.6465   70.9251 O.3     191      M_A    0.0000
   1341 H         117.9878  197.7575   68.5129 H       191      M_A    0.0000
   1342 H         117.7808  197.9148   70.2444 H       191      M_A    0.0000
   1343 H         118.9431  195.7337   68.9738 H       191      M_A    0.0000
   1344 H         117.3118  195.1218   69.2038 H       191      M_A    0.0000
   1345 C         117.2651  195.3915   71.7345 C.3     192      M_A    0.0000
   1346 C         115.9938  195.9912   71.1419 C.3     192      M_A    0.0000
   1347 O         114.8840  195.1216   71.3612 O.3     192      M_A    0.0000
   1348 H         117.1410  194.3085   71.8548 H       192      M_A    0.0000
   1349 H         117.4403  195.7887   72.7408 H       192      M_A    0.0000
   1350 H         116.0984  196.0882   70.0537 H       192      M_A    0.0000
   1351 H         115.7987  197.0038   71.5236 H       192      M_A    0.0000
   1352 C         115.0839  193.8555   70.7719 C.3     193      M_A    0.0000
   1353 C         113.7928  193.2923   70.1862 C.3     193      M_A    0.0000
   1354 O         113.8984  191.8797   70.0148 O.3     193      M_A    0.0000
   1355 H         115.8420  193.9365   69.9837 H       193      M_A    0.0000
   1356 H         115.4962  193.1663   71.5176 H       193      M_A    0.0000
   1357 H         113.6217  193.7117   69.1866 H       193      M_A    0.0000
   1358 H         112.9138  193.5642   70.7884 H       193      M_A    0.0000
   1359 C         112.6322  191.2675   69.9042 C.3     194      M_A    0.0000
   1360 C         111.6354  192.1557   69.1662 C.3     194      M_A    0.0000
   1361 O         110.4654  191.4139   68.8244 O.3     194      M_A    0.0000
   1362 H         112.7350  190.3113   69.3772 H       194      M_A    0.0000
   1363 H         112.2561  191.0223   70.9040 H       194      M_A    0.0000
   1364 H         112.0703  192.4983   68.2186 H       194      M_A    0.0000
   1365 H         111.3895  193.0626   69.7373 H       194      M_A    0.0000
   1366 C         109.8102  190.9098   69.9676 C.3     195      M_A    0.0000
   1367 C         108.2938  190.9140   69.8003 C.3     195      M_A    0.0000
   1368 O         107.7249  189.7444   70.3869 O.3     195      M_A    0.0000
   1369 H         110.1567  189.8882   70.1650 H       195      M_A    0.0000
   1370 H         110.0981  191.5009   70.8444 H       195      M_A    0.0000
   1371 H         108.0355  190.8805   68.7342 H       195      M_A    0.0000
   1372 H         107.8376  191.8319   70.1985 H       195      M_A    0.0000
   1373 C         106.3756  189.9412   70.7488 C.3     196      M_A    0.0000
   1374 C         105.4197  189.3866   69.6972 C.3     196      M_A    0.0000
   1375 O         104.3738  188.6411   70.3188 O.3     196      M_A    0.0000
   1376 H         106.1834  189.4573   71.7140 H       196      M_A    0.0000
   1377 H         106.1912  191.0101   70.9051 H       196      M_A    0.0000
   1378 H         105.9511  188.6842   69.0425 H       196      M_A    0.0000
   1379 H         105.0228  190.1765   69.0432 H       196      M_A    0.0000
   1380 C         103.1757  188.6969   69.5761 C.3     197      M_A    0.0000
   1381 C         102.9750  187.4446   68.7283 C.3     197      M_A    0.0000
   1382 O         101.5848  187.2077   68.5115 O.3     197      M_A    0.0000
   1383 H         102.3281  188.8184   70.2613 H       197      M_A    0.0000
   1384 H         103.1806  189.5900   68.9408 H       197      M_A    0.0000
   1385 H         103.3571  186.5660   69.2634 H       197      M_A    0.0000
   1386 H         103.5316  187.4941   67.7813 H       197      M_A    0.0000
   1387 C         101.2905  185.8295   68.4457 C.3     198      M_A    0.0000
   1388 C         101.1240  185.3531   67.0061 C.3     198      M_A    0.0000
   1389 O         100.5538  184.0455   66.9771 O.3     198      M_A    0.0000
   1390 H         102.0937  185.2623   68.9314 H       198      M_A    0.0000
   1391 H         100.3825  185.6216   69.0231 H       198      M_A    0.0000
   1392 H         102.1063  185.2713   66.5236 H       198      M_A    0.0000
   1393 H         100.5425  186.0639   66.4013 H       198      M_A    0.0000
   1394 C          99.6736  183.8801   65.8870 C.3     199      M_A    0.0000
   1395 C         100.2906  184.3694   64.5805 C.3     199      M_A    0.0000
   1396 O          99.7678  183.6324   63.4762 O.3     199      M_A    0.0000
   1397 H          99.4045  182.8210   65.7940 H       199      M_A    0.0000
   1398 H          98.7374  184.4127   66.0890 H       199      M_A    0.0000
   1399 H         101.3728  184.1876   64.5872 H       199      M_A    0.0000
   1400 H         100.1616  185.4529   64.4439 H       199      M_A    0.0000
   1401 C         100.7025  183.5275   62.4247 C.3     200      M_A    0.0000
   1402 C         100.3379  184.4295   61.2497 C.3     200      M_A    0.0000
   1403 O         101.3819  184.4266   60.2771 O.3     200      M_A    0.0000
   1404 H         101.6999  183.7912   62.7967 H       200      M_A    0.0000
   1405 H         100.7688  182.4837   62.0973 H       200      M_A    0.0000
   1406 H         100.2391  185.4675   61.5920 H       200      M_A    0.0000
   1407 H          99.3687  184.1581   60.8067 H       200      M_A    0.0000
   1408 C         100.9423  184.9252   59.0327 C.3     201      M_A    0.0000
   1409 C          99.8761  186.0036   59.1985 C.3     201      M_A    0.0000
   1410 O          99.7821  186.7967   58.0161 O.3     201      M_A    0.0000
   1411 H         101.7978  185.3338   58.4816 H       201      M_A    0.0000
   1412 H         100.5573  184.0996   58.4235 H       201      M_A    0.0000
   1413 H         100.1605  186.6890   60.0070 H       201      M_A    0.0000
   1414 H          98.9019  185.5802   59.4826 H       201      M_A    0.0000
   1415 C          98.5985  186.5292   57.2966 C.3     202      M_A    0.0000
   1416 C          98.6544  187.0964   55.8815 C.3     202      M_A    0.0000
   1417 O          98.6213  186.0420   54.9208 O.3     202      M_A    0.0000
   1418 H          98.4358  185.4455   57.2535 H       202      M_A    0.0000
   1419 H          97.7400  186.9419   57.8386 H       202      M_A    0.0000
   1420 H          99.6047  187.6234   55.7275 H       202      M_A    0.0000
   1421 H          97.8603  187.8354   55.7018 H       202      M_A    0.0000
   1422 C          99.2910  186.3946   53.7302 C.3     203      M_A    0.0000
   1423 C          99.3407  185.2333   52.7422 C.3     203      M_A    0.0000
   1424 O          99.3310  185.7199   51.4010 O.3     203      M_A    0.0000
   1425 H          98.7851  187.2508   53.2680 H       203      M_A    0.0000
   1426 H         100.3049  186.7357   53.9683 H       203      M_A    0.0000
   1427 H          98.4428  184.6117   52.8507 H       203      M_A    0.0000
   1428 H         100.1981  184.5703   52.9281 H       203      M_A    0.0000
   1429 C         100.6295  186.0301   50.9450 C.3     204      M_A    0.0000
   1430 C         100.7745  185.7970   49.4444 C.3     204      M_A    0.0000
   1431 O         100.3769  186.9597   48.7192 O.3     204      M_A    0.0000
   1432 H         100.8571  187.0770   51.1794 H       204      M_A    0.0000
   1433 H         101.3633  185.4311   51.4961 H       204      M_A    0.0000
   1434 H         100.1025  184.9902   49.1249 H       204      M_A    0.0000
   1435 H         101.7907  185.4763   49.1732 H       204      M_A    0.0000
   1436 C          99.1149  186.7935   48.1107 C.3     205      M_A    0.0000
   1437 C          99.1699  185.8024   46.9523 C.3     205      M_A    0.0000
   1438 O          97.8569  185.3566   46.6157 O.3     205      M_A    0.0000
   1439 H          98.3928  186.4464   48.8594 H       205      M_A    0.0000
   1440 H          98.7458  187.7652   47.7633 H       205      M_A    0.0000
   1441 H          99.7312  184.9082   47.2519 H       205      M_A    0.0000
   1442 H          99.6949  186.2169   46.0795 H       205      M_A    0.0000
   1443 C          97.0128  186.4295   46.2600 C.3     206      M_A    0.0000
   1444 C          96.0274  186.0365   45.1638 C.3     206      M_A    0.0000
   1445 O          95.9801  187.0422   44.1528 O.3     206      M_A    0.0000
   1446 H          96.4629  186.7692   47.1460 H       206      M_A    0.0000
   1447 H          97.6212  187.2820   45.9373 H       206      M_A    0.0000
   1448 H          95.0137  185.9696   45.5790 H       206      M_A    0.0000
   1449 H          96.2529  185.0462   44.7422 H       206      M_A    0.0000
   1450 C          94.9451  186.8053   43.2239 C.3     207      M_A    0.0000
   1451 C          95.3798  185.8421   42.1236 C.3     207      M_A    0.0000
   1452 O          94.4726  185.9002   41.0239 O.3     207      M_A    0.0000
   1453 H          94.0723  186.3973   43.7477 H       207      M_A    0.0000
   1454 H          94.6187  187.7571   42.7896 H       207      M_A    0.0000
   1455 H          95.3467  184.8102   42.4958 H       207      M_A    0.0000
   1456 H          96.4170  186.0211   41.8051 H       207      M_A    0.0000
   1457 C          94.4692  184.7005   40.2815 C.3     208      M_A    0.0000
   1458 C          95.8693  184.1083   40.1543 C.3     208      M_A    0.0000
   1459 O          95.8321  182.9010   39.3947 O.3     208      M_A    0.0000
   1460 H          93.8043  183.9750   40.7654 H       208      M_A    0.0000
   1461 H          94.0425  184.8859   39.2892 H       208      M_A    0.0000
   1462 H          96.2514  183.8361   41.1464 H       208      M_A    0.0000
   1463 H          96.5858  184.8300   39.7361 H       208      M_A    0.0000
   1464 C          95.1325  181.8777   40.0682 C.3     209      M_A    0.0000
   1465 C          94.3893  180.9650   39.0977 C.3     209      M_A    0.0000
   1466 O          92.9799  181.1512   39.2192 O.3     209      M_A    0.0000
   1467 H          95.8377  181.2861   40.6644 H       209      M_A    0.0000
   1468 H          94.4322  182.3234   40.7838 H       209      M_A    0.0000
   1469 H          94.5839  179.9146   39.3491 H       209      M_A    0.0000
   1470 H          94.7297  181.1012   38.0609 H       209      M_A    0.0000
   1471 C          92.2775  180.5598   38.1481 C.3     210      M_A    0.0000
   1472 C          92.5625  181.2641   36.8252 C.3     210      M_A    0.0000
   1473 O          91.9252  180.5782   35.7485 O.3     210      M_A    0.0000
   1474 H          92.5557  179.5019   38.0703 H       210      M_A    0.0000
   1475 H          91.2030  180.5742   38.3633 H       210      M_A    0.0000
   1476 H          93.6389  181.2382   36.6125 H       210      M_A    0.0000
   1477 H          92.2803  182.3265   36.8545 H       210      M_A    0.0000
   1478 C          90.5206  180.6957   35.8087 C.3     211      M_A    0.0000
   1479 C          90.0126  181.8631   34.9683 C.3     211      M_A    0.0000
   1480 O          89.9675  181.5012   33.5889 O.3     211      M_A    0.0000
   1481 H          90.0621  179.7627   35.4595 H       211      M_A    0.0000
   1482 H          90.2080  180.8134   36.8525 H       211      M_A    0.0000
   1483 H          90.7093  182.7078   35.0423 H       211      M_A    0.0000
   1484 H          89.0403  182.2344   35.3234 H       211      M_A    0.0000
   1485 C          91.1684  181.8224   32.9218 C.3     212      M_A    0.0000
   1486 C          90.9486  182.0297   31.4265 C.3     212      M_A    0.0000
   1487 O          91.9919  182.8327   30.8765 O.3     212      M_A    0.0000
   1488 H          91.5969  182.7312   33.3612 H       212      M_A    0.0000
   1489 H          91.9047  181.0287   33.0920 H       212      M_A    0.0000
   1490 H          90.0147  182.5813   31.2590 H       212      M_A    0.0000
   1491 H          90.8431  181.0761   30.8892 H       212      M_A    0.0000
   1492 C          92.0398  182.7406   29.4696 C.3     213      M_A    0.0000
   1493 C          90.7279  182.2208   28.8902 C.3     213      M_A    0.0000
   1494 O          90.5214  182.7427   27.5784 O.3     213      M_A    0.0000
   1495 H          92.2641  183.7276   29.0476 H       213      M_A    0.0000
   1496 H          92.8708  182.0901   29.1740 H       213      M_A    0.0000
   1497 H          89.8851  182.5738   29.4980 H       213      M_A    0.0000
   1498 H          90.6778  181.1224   28.9034 H       213      M_A    0.0000
   1499 C          90.6628  181.7475   26.5885 C.3     214      M_A    0.0000
   1500 C          90.7993  182.3501   25.1938 C.3     214      M_A    0.0000
   1501 O          91.3799  181.4041   24.2972 O.3     214      M_A    0.0000
   1502 H          91.5433  181.1335   26.8129 H       214      M_A    0.0000
   1503 H          89.8035  181.0684   26.6275 H       214      M_A    0.0000
   1504 H          91.4841  183.2073   25.2224 H       214      M_A    0.0000
   1505 H          89.8412  182.7345   24.8150 H       214      M_A    0.0000
   1506 C          90.9173  181.5797   22.9760 C.3     215      M_A    0.0000
   1507 C          91.0026  180.2880   22.1688 C.3     215      M_A    0.0000
   1508 O          90.0039  180.2707   21.1500 O.3     215      M_A    0.0000
   1509 H          89.8794  181.9333   22.9978 H       215      M_A    0.0000
   1510 H          91.4960  182.3724   22.4884 H       215      M_A    0.0000
   1511 H          90.7954  179.4275   22.8177 H       215      M_A    0.0000
   1512 H          92.0085  180.1261   21.7551 H       215      M_A    0.0000
   1513 C          89.9286  179.0161   20.5091 C.3     216      M_A    0.0000
   1514 C          88.6218  178.8496   19.7399 C.3     216      M_A    0.0000
   1515 O          88.7107  177.7457   18.8403 O.3     216      M_A    0.0000
   1516 H          90.7771  178.9064   19.8231 H       216      M_A    0.0000
   1517 H          90.0369  178.2186   21.2529 H       216      M_A    0.0000
   1518 H          88.4369  179.7368   19.1211 H       216      M_A    0.0000
   1519 H          87.7565  178.7577   20.4122 H       216      M_A    0.0000
   1520 C          87.5262  177.5809   18.0919 C.3     217      M_A    0.0000
   1521 C          86.3741  178.3997   18.6660 C.3     217      M_A    0.0000
   1522 O          85.2322  178.3175   17.8145 O.3     217      M_A    0.0000
   1523 H          87.7082  177.8785   17.0522 H       217      M_A    0.0000
   1524 H          87.2591  176.5185   18.0594 H       217      M_A    0.0000
   1525 H          86.6529  179.4604   18.7055 H       217      M_A    0.0000
   1526 H          86.1338  178.1062   19.6981 H       217      M_A    0.0000
   1527 C          84.4284  179.4738   17.9002 C.3     218      M_A    0.0000
   1528 C          82.9531  179.1569   17.6765 C.3     218      M_A    0.0000
   1529 O          82.1485  179.8160   18.6533 O.3     218      M_A    0.0000
   1530 H          84.5611  179.9370   18.8854 H       218      M_A    0.0000
   1531 H          84.7739  180.2141   17.1697 H       218      M_A    0.0000
   1532 H          82.7778  178.0816   17.8081 H       218      M_A    0.0000
   1533 H          82.6300  179.3982   16.6535 H       218      M_A    0.0000
   1534 C          80.7816  179.4979   18.5098 C.3     219      M_A    0.0000
   1535 C          80.5018  178.0354   18.8414 C.3     219      M_A    0.0000
   1536 O          79.1397  177.8649   19.2306 O.3     219      M_A    0.0000
   1537 H          80.1865  180.1452   19.1651 H       219      M_A    0.0000
   1538 H          80.4588  179.7249   17.4874 H       219      M_A    0.0000
   1539 H          81.1088  177.7245   19.7013 H       219      M_A    0.0000
   1540 H          80.7752  177.3652   18.0136 H       219      M_A    0.0000
   1541 C          78.9912  176.8398   20.1884 C.3     220      M_A    0.0000
   1542 C          77.5252  176.4855   20.4173 C.3     220      M_A    0.0000
   1543 O          77.4118  175.4178   21.3570 O.3     220      M_A    0.0000
   1544 H          79.5385  175.9493   19.8563 H       220      M_A    0.0000
   1545 H          79.4598  177.1483   21.1298 H       220      M_A    0.0000
   1546 H          77.0783  176.1220   19.4831 H       220      M_A    0.0000
   1547 H          76.9323  177.3600   20.7219 H       220      M_A    0.0000
   1548 C          76.3492  174.5466   21.0370 C.3     221      M_A    0.0000
   1549 C          75.1160  174.8179   21.8930 C.3     221      M_A    0.0000
   1550 O          73.9264  174.5693   21.1454 O.3     221      M_A    0.0000
   1551 H          76.0939  174.6582   19.9764 H       221      M_A    0.0000
   1552 H          76.6777  173.5085   21.1608 H       221      M_A    0.0000
   1553 H          75.0846  175.8773   22.1780 H       221      M_A    0.0000
   1554 H          75.1325  174.2471   22.8327 H       221      M_A    0.0000
   1555 C          73.7380  173.1929   20.8999 C.3     222      M_A    0.0000
   1556 C          72.2661  172.8501   20.6916 C.3     222      M_A    0.0000
   1557 O          72.0046  172.5952   19.3124 O.3     222      M_A    0.0000
   1558 H          74.3142  172.8989   20.0144 H       222      M_A    0.0000
   1559 H          74.1496  172.6131   21.7339 H       222      M_A    0.0000
   1560 H          71.6398  173.7072   20.9704 H       222      M_A    0.0000
   1561 H          71.9435  172.0136   21.3282 H       222      M_A    0.0000
   1562 C          70.8755  171.7680   19.1357 C.3     223      M_A    0.0000
   1563 C          69.5736  172.5281   19.3686 C.3     223      M_A    0.0000
   1564 O          68.5091  171.9306   18.6298 O.3     223      M_A    0.0000
   1565 H          70.8838  171.3527   18.1207 H       223      M_A    0.0000
   1566 H          70.9417  170.9094   19.8136 H       223      M_A    0.0000
   1567 H          69.6688  173.5556   18.9948 H       223      M_A    0.0000
   1568 H          69.3301  172.6111   20.4377 H       223      M_A    0.0000
   1569 C          68.2335  170.6197   19.0723 C.3     224      M_A    0.0000
   1570 C          66.7378  170.3882   19.2633 C.3     224      M_A    0.0000
   1571 O          66.3522  169.1345   18.7019 O.3     224      M_A    0.0000
   1572 H          68.6284  169.8996   18.3455 H       224      M_A    0.0000
   1573 H          68.7709  170.4292   20.0083 H       224      M_A    0.0000
   1574 H          66.1689  171.1555   18.7228 H       224      M_A    0.0000
   1575 H          66.4393  170.4703   20.3185 H       224      M_A    0.0000
   1576 C          65.1974  168.6135   19.3227 C.3     225      M_A    0.0000
   1577 C          63.9221  169.2303   18.7567 C.3     225      M_A    0.0000
   1578 O          62.8851  168.2528   18.6863 O.3     225      M_A    0.0000
   1579 H          65.1719  167.5254   19.1890 H       225      M_A    0.0000
   1580 H          65.2553  168.7835   20.4038 H       225      M_A    0.0000
   1581 H          64.0958  169.5693   17.7274 H       225      M_A    0.0000
   1582 H          63.6064  170.1179   19.3237 H       225      M_A    0.0000
   1583 C          62.8304  167.4598   19.8519 C.3     226      M_A    0.0000
   1584 C          61.5864  166.5772   19.8796 C.3     226      M_A    0.0000
   1585 O          61.9167  165.2652   20.3327 O.3     226      M_A    0.0000
   1586 H          63.7286  166.8331   19.9082 H       226      M_A    0.0000
   1587 H          62.8579  168.1069   20.7359 H       226      M_A    0.0000
   1588 H          61.1881  166.4608   18.8636 H       226      M_A    0.0000
   1589 H          60.7781  167.0225   20.4775 H       226      M_A    0.0000
   1590 C          60.8091  164.6173   20.9190 C.3     227      M_A    0.0000
   1591 C          59.5207  164.8870   20.1479 C.3     227      M_A    0.0000
   1592 O          58.8560  163.6614   19.8447 O.3     227      M_A    0.0000
   1593 H          60.9972  163.5376   20.9569 H       227      M_A    0.0000
   1594 H          60.7046  164.9422   21.9604 H       227      M_A    0.0000
   1595 H          59.7537  165.3574   19.1840 H       227      M_A    0.0000
   1596 H          58.8605  165.5870   20.6801 H       227      M_A    0.0000
   1597 C          58.5622  162.9209   21.0091 C.3     228      M_A    0.0000
   1598 C          57.2581  162.1416   20.8716 C.3     228      M_A    0.0000
   1599 O          57.5026  160.7396   20.9748 O.3     228      M_A    0.0000
   1600 H          59.3862  162.2277   21.2171 H       228      M_A    0.0000
   1601 H          58.5126  163.5975   21.8698 H       228      M_A    0.0000
   1602 H          56.8274  162.3064   19.8757 H       228      M_A    0.0000
   1603 H          56.4995  162.4763   21.5939 H       228      M_A    0.0000
   1604 C          56.3981  160.0523   21.5206 C.3     229      M_A    0.0000
   1605 C          55.8887  158.9621   20.5830 C.3     229      M_A    0.0000
   1606 O          55.9475  157.6879   21.2224 O.3     229      M_A    0.0000
   1607 H          56.6845  159.6082   22.4816 H       229      M_A    0.0000
   1608 H          55.5975  160.7664   21.7448 H       229      M_A    0.0000
   1609 H          56.5383  158.8942   19.7011 H       229      M_A    0.0000
   1610 H          54.8795  159.1814   20.2054 H       229      M_A    0.0000
   1611 C          55.2514  156.7012   20.4929 C.3     230      M_A    0.0000
   1612 C          54.9478  155.4736   21.3462 C.3     230      M_A    0.0000
   1613 O          53.5384  155.2991   21.4838 O.3     230      M_A    0.0000
   1614 H          54.3153  157.1247   20.1095 H       230      M_A    0.0000
   1615 H          55.8373  156.4168   19.6115 H       230      M_A    0.0000
   1616 H          55.3406  155.6173   22.3608 H       230      M_A    0.0000
   1617 H          55.4333  154.5683   20.9538 H       230      M_A    0.0000
   1618 C          53.1820  154.9130   22.7931 C.3     231      M_A    0.0000
   1619 C          51.6908  154.6129   22.9099 C.3     231      M_A    0.0000
   1620 O          51.4846  153.2502   23.2789 O.3     231      M_A    0.0000
   1621 H          53.7603  154.0270   23.0814 H       231      M_A    0.0000
   1622 H          53.4679  155.7023   23.4976 H       231      M_A    0.0000
   1623 H          51.2057  154.7445   21.9343 H       231      M_A    0.0000
   1624 H          51.1843  155.3025   23.6007 H       231      M_A    0.0000
   1625 C          50.2161  152.7827   22.8755 C.3     232      M_A    0.0000
   1626 C          50.1502  152.5498   21.3693 C.3     232      M_A    0.0000
   1627 O          49.2910  151.4499   21.0726 O.3     232      M_A    0.0000
   1628 H          49.9874  151.8492   23.4035 H       232      M_A    0.0000
   1629 H          49.4470  153.5000   23.1839 H       232      M_A    0.0000
   1630 H          51.1428  152.2760   20.9897 H       232      M_A    0.0000
   1631 H          49.8521  153.4572   20.8244 H       232      M_A    0.0000
   1632 C          48.3031  151.2725   22.0641 C.3     233      M_A    0.0000
   1633 C          47.4829  150.0081   21.8276 C.3     233      M_A    0.0000
   1634 O          46.8238  149.6102   23.0289 O.3     233      M_A    0.0000
   1635 H          48.7814  151.2229   23.0497 H       233      M_A    0.0000
   1636 H          47.6490  152.1514   22.0899 H       233      M_A    0.0000
   1637 H          48.1462  149.1787   21.5511 H       233      M_A    0.0000
   1638 H          46.7744  150.1260   20.9949 H       233      M_A    0.0000
   1639 C          45.6171  148.9285   22.7653 C.3     234      M_A    0.0000
   1640 C          45.2310  147.9959   23.9091 C.3     234      M_A    0.0000
   1641 O          43.8333  147.7116   23.8695 O.3     234      M_A    0.0000
   1642 H          44.8159  149.6583   22.5977 H       234      M_A    0.0000
   1643 H          45.7124  148.3650   21.8302 H       234      M_A    0.0000
   1644 H          45.4177  148.4884   24.8720 H       234      M_A    0.0000
   1645 H          45.8332  147.0759   23.9123 H       234      M_A    0.0000
   1646 C          43.4442  147.1595   22.6309 C.3     235      M_A    0.0000
   1647 C          42.6500  145.8694   22.8094 C.3     235      M_A    0.0000
   1648 O          41.3720  145.9810   22.1847 O.3     235      M_A    0.0000
   1649 H          42.8409  147.8910   22.0799 H       235      M_A    0.0000
   1650 H          44.3332  146.9774   22.0164 H       235      M_A    0.0000
   1651 H          42.4572  145.6937   23.8754 H       235      M_A    0.0000
   1652 H          43.2039  144.9908   22.4482 H       235      M_A    0.0000
   1653 C          40.5509  146.9274   22.8331 C.3     236      M_A    0.0000
   1654 C          40.0930  146.4370   24.2032 C.3     236      M_A    0.0000
   1655 O          38.7164  146.0638   24.1639 O.3     236      M_A    0.0000
   1656 H          41.0997  147.8705   22.9433 H       236      M_A    0.0000
   1657 H          39.6850  147.1542   22.2009 H       236      M_A    0.0000
   1658 H          40.1707  147.2500   24.9362 H       236      M_A    0.0000
   1659 H          40.7251  145.6205   24.5813 H       236      M_A    0.0000
   1660 C          38.5104  144.7615   24.6659 C.3     237      M_A    0.0000
   1661 C          39.8283  144.0348   24.9156 C.3     237      M_A    0.0000
   1662 O          39.6114  142.8686   25.7084 O.3     237      M_A    0.0000
   1663 H          37.9375  144.8177   25.5994 H       237      M_A    0.0000
   1664 H          37.8892  144.1933   23.9643 H       237      M_A    0.0000
   1665 H          40.5059  144.6773   25.4921 H       237      M_A    0.0000
   1666 H          40.3524  143.7978   23.9784 H       237      M_A    0.0000
   1667 C          38.5315  142.0990   25.2268 C.3     238      M_A    0.0000
   1668 C          38.7329  140.6103   25.4924 C.3     238      M_A    0.0000
   1669 O          38.1844  139.8358   24.4270 O.3     238      M_A    0.0000
   1670 H          37.6031  142.4364   25.7031 H       238      M_A    0.0000
   1671 H          38.4033  142.2804   24.1536 H       238      M_A    0.0000
   1672 H          38.1891  140.3156   26.3989 H       238      M_A    0.0000
   1673 H          39.7890  140.3629   25.6731 H       238      M_A    0.0000
   1674 C          37.6936  138.5929   24.8794 C.3     239      M_A    0.0000
   1675 C          38.7954  137.7400   25.5003 C.3     239      M_A    0.0000
   1676 O          38.2306  136.6608   26.2435 O.3     239      M_A    0.0000
   1677 H          36.8986  138.7618   25.6157 H       239      M_A    0.0000
   1678 H          37.2238  138.0598   24.0451 H       239      M_A    0.0000
   1679 H          39.3723  138.3385   26.2169 H       239      M_A    0.0000
   1680 H          39.5142  137.3837   24.7483 H       239      M_A    0.0000
   1681 C          39.0836  135.5374   26.2693 C.3     240      M_A    0.0000
   1682 C          38.9872  134.7823   27.5913 C.3     240      M_A    0.0000
   1683 O          38.8302  133.3838   27.3557 O.3     240      M_A    0.0000
   1684 H          38.8261  134.8659   25.4413 H       240      M_A    0.0000
   1685 H          40.1158  135.8578   26.0881 H       240      M_A    0.0000
   1686 H          38.0936  135.1041   28.1412 H       240      M_A    0.0000
   1687 H          39.8441  134.9903   28.2484 H       240      M_A    0.0000
   1688 C          39.4460  132.6091   28.3612 C.3     241      M_A    0.0000
   1689 C          39.0424  131.1406   28.2727 C.3     241      M_A    0.0000
   1690 O          39.7530  130.3697   29.2405 O.3     241      M_A    0.0000
   1691 H          40.5355  132.6982   28.2732 H       241      M_A    0.0000
   1692 H          39.1884  133.0162   29.3455 H       241      M_A    0.0000
   1693 H          39.3206  130.7351   27.2916 H       241      M_A    0.0000
   1694 H          37.9549  131.0057   28.3641 H       241      M_A    0.0000
   1695 C          39.2820  129.0414   29.3030 C.3     242      M_A    0.0000
   1696 C          37.8463  128.9721   29.8141 C.3     242      M_A    0.0000
   1697 O          37.3356  127.6460   29.6860 O.3     242      M_A    0.0000
   1698 H          39.3412  128.5869   28.3067 H       242      M_A    0.0000
   1699 H          39.9437  128.4487   29.9448 H       242      M_A    0.0000
   1700 H          37.1997  129.6116   29.1999 H       242      M_A    0.0000
   1701 H          37.7572  129.3443   30.8450 H       242      M_A    0.0000
   1702 C          37.9007  126.7709   30.6375 C.3     243      M_A    0.0000
   1703 C          37.2249  125.4033   30.6221 C.3     243      M_A    0.0000
   1704 O          37.3267  124.7832   31.9030 O.3     243      M_A    0.0000
   1705 H          38.9722  126.6553   30.4344 H       243      M_A    0.0000
   1706 H          37.8292  127.2198   31.6347 H       243      M_A    0.0000
   1707 H          37.7409  124.7395   29.9168 H       243      M_A    0.0000
   1708 H          36.1812  125.4629   30.2809 H       243      M_A    0.0000
   1709 C          36.0739  124.3327   32.3699 C.3     244      M_A    0.0000
   1710 C          36.2111  123.1105   33.2724 C.3     244      M_A    0.0000
   1711 O          35.5329  123.3261   34.5091 O.3     244      M_A    0.0000
   1712 H          35.5772  125.1423   32.9180 H       244      M_A    0.0000
   1713 H          35.4260  124.1046   31.5159 H       244      M_A    0.0000
   1714 H          37.2669  122.9487   33.5245 H       244      M_A    0.0000
   1715 H          35.8690  122.1908   32.7760 H       244      M_A    0.0000
   1716 C          35.2881  122.1163   35.1922 C.3     245      M_A    0.0000
   1717 C          36.4331  121.1238   35.0159 C.3     245      M_A    0.0000
   1718 O          36.5725  120.3123   36.1812 O.3     245      M_A    0.0000
   1719 H          35.1408  122.3240   36.2589 H       245      M_A    0.0000
   1720 H          34.3477  121.6797   34.8370 H       245      M_A    0.0000
   1721 H          37.3816  121.6639   34.9018 H       245      M_A    0.0000
   1722 H          36.3149  120.5148   34.1080 H       245      M_A    0.0000
   1723 C          35.4117  120.3398   36.9826 C.3     246      M_A    0.0000
   1724 C          34.9747  118.9379   37.3962 C.3     246      M_A    0.0000
   1725 O          34.6117  118.9162   38.7759 O.3     246      M_A    0.0000
   1726 H          35.6011  120.9460   37.8767 H       246      M_A    0.0000
   1727 H          34.6049  120.8457   36.4403 H       246      M_A    0.0000
   1728 H          35.8129  118.2379   37.2874 H       246      M_A    0.0000
   1729 H          34.1671  118.5524   36.7571 H       246      M_A    0.0000
   1730 C          34.0769  117.6682   39.1590 C.3     247      M_A    0.0000
   1731 C          35.0830  116.5375   38.9684 C.3     247      M_A    0.0000
   1732 O          35.2392  115.8004   40.1801 O.3     247      M_A    0.0000
   1733 H          33.7664  117.7125   40.2099 H       247      M_A    0.0000
   1734 H          33.1661  117.4685   38.5833 H       247      M_A    0.0000
   1735 H          36.0710  116.9524   38.7311 H       247      M_A    0.0000
   1736 H          34.8138  115.8835   38.1264 H       247      M_A    0.0000
   1737 C          34.2716  114.7812   40.3037 C.3     248      M_A    0.0000
   1738 C          34.7831  113.6119   41.1395 C.3     248      M_A    0.0000
   1739 O          33.6993  112.7750   41.5406 O.3     248      M_A    0.0000
   1740 H          33.3649  115.1937   40.7623 H       248      M_A    0.0000
   1741 H          33.9752  114.4357   39.3068 H       248      M_A    0.0000
   1742 H          35.2417  113.9858   42.0638 H       248      M_A    0.0000
   1743 H          35.5650  113.0423   40.6167 H       248      M_A    0.0000
   1744 C          34.1501  111.5363   42.0434 C.3     249      M_A    0.0000
   1745 C          35.2271  111.7148   43.1090 C.3     249      M_A    0.0000
   1746 O          35.1784  110.6437   44.0504 O.3     249      M_A    0.0000
   1747 H          33.3016  110.9842   42.4652 H       249      M_A    0.0000
   1748 H          34.5291  110.9229   41.2181 H       249      M_A    0.0000
   1749 H          35.0403  112.6340   43.6787 H       249      M_A    0.0000
   1750 H          36.2287  111.8241   42.6687 H       249      M_A    0.0000
   1751 C          36.0000  109.5647   43.6617 C.3     250      M_A    0.0000
   1752 C          35.7189  108.3121   44.4858 C.3     250      M_A    0.0000
   1753 O          35.1309  107.3005   43.6693 O.3     250      M_A    0.0000
   1754 H          35.8401  109.3502   42.5982 H       250      M_A    0.0000
   1755 H          37.0527  109.8543   43.7561 H       250      M_A    0.0000
   1756 H          34.9863  108.5381   45.2711 H       250      M_A    0.0000
   1757 H          36.6191  107.9468   45.0009 H       250      M_A    0.0000
   1758 C          35.4126  106.0054   44.1527 C.3     251      M_A    0.0000
   1759 C          34.7821  105.7608   45.5202 C.3     251      M_A    0.0000
   1760 O          34.0249  104.5515   45.5103 O.3     251      M_A    0.0000
   1761 H          35.0422  105.2613   43.4373 H       251      M_A    0.0000
   1762 H          36.4979  105.8619   44.2027 H       251      M_A    0.0000
   1763 H          34.0737  106.5656   45.7543 H       251      M_A    0.0000
   1764 H          35.5303  105.7656   46.3260 H       251      M_A    0.0000
   1765 C          33.6945  104.1276   46.8147 C.3     252      M_A    0.0000
   1766 C          33.6705  102.6065   46.9277 C.3     252      M_A    0.0000
   1767 O          33.7193  102.2081   48.2969 O.3     252      M_A    0.0000
   1768 H          34.4208  104.5390   47.5260 H       252      M_A    0.0000
   1769 H          32.7226  104.5461   47.0998 H       252      M_A    0.0000
   1770 H          34.5638  102.1823   46.4517 H       252      M_A    0.0000
   1771 H          32.8069  102.1679   46.4071 H       252      M_A    0.0000
   1772 C          32.9985  101.0167   48.5236 C.3     253      M_A    0.0000
   1773 C          33.3041   99.9593   47.4674 C.3     253      M_A    0.0000
   1774 O          33.0132   98.6557   47.9692 O.3     253      M_A    0.0000
   1775 H          33.2443  100.6263   49.5185 H       253      M_A    0.0000
   1776 H          31.9251  101.2369   48.5426 H       253      M_A    0.0000
   1777 H          34.3758   99.9660   47.2310 H       253      M_A    0.0000
   1778 H          32.7793  100.1574   46.5216 H       253      M_A    0.0000
   1779 C          32.3911   97.8449   46.9967 C.3     254      M_A    0.0000
   1780 C          32.7206   96.3685   47.1940 C.3     254      M_A    0.0000
   1781 O          32.5656   95.6556   45.9677 O.3     254      M_A    0.0000
   1782 H          31.3050   97.9898   47.0427 H       254      M_A    0.0000
   1783 H          32.6973   98.1731   45.9969 H       254      M_A    0.0000
   1784 H          32.0133   95.9192   47.9027 H       254      M_A    0.0000
   1785 H          33.7218   96.2235   47.6250 H       254      M_A    0.0000
   1786 C          33.1393   94.3683   46.0321 C.3     255      M_A    0.0000
   1787 C          34.1290   94.1309   44.8958 C.3     255      M_A    0.0000
   1788 O          34.9432   92.9928   45.1743 O.3     255      M_A    0.0000
   1789 H          33.6474   94.2441   46.9960 H       255      M_A    0.0000
   1790 H          32.3456   93.6129   46.0099 H       255      M_A    0.0000
   1791 H          34.8127   94.9852   44.8112 H       255      M_A    0.0000
   1792 H          33.6255   94.0423   43.9222 H       255      M_A    0.0000
   1793 C          34.1730   91.8813   45.5762 C.3     256      M_A    0.0000
   1794 C          34.9884   90.5920   45.5642 C.3     256      M_A    0.0000
   1795 O          34.4213   89.6359   46.4587 O.3     256      M_A    0.0000
   1796 H          33.7770   92.0580   46.5835 H       256      M_A    0.0000
   1797 H          33.2996   91.7856   44.9211 H       256      M_A    0.0000
   1798 H          36.0047   90.7892   45.9284 H       256      M_A    0.0000
   1799 H          35.0992   90.1836   44.5493 H       256      M_A    0.0000
   1800 C          35.2159   88.4744   46.5592 C.3     257      M_A    0.0000
   1801 C          35.3932   87.7898   45.2075 C.3     257      M_A    0.0000
   1802 O          35.9749   86.4979   45.3762 O.3     257      M_A    0.0000
   1803 H          36.1975   88.7394   46.9701 H       257      M_A    0.0000
   1804 H          34.7637   87.7834   47.2796 H       257      M_A    0.0000
   1805 H          36.0930   88.3639   44.5868 H       257      M_A    0.0000
   1806 H          34.4506   87.7409   44.6433 H       257      M_A    0.0000
   1807 C          35.0048   85.5208   45.6833 C.3     258      M_A    0.0000
   1808 C          35.3028   84.1908   44.9981 C.3     258      M_A    0.0000
   1809 O          34.7592   83.1089   45.7531 O.3     258      M_A    0.0000
   1810 H          34.9657   85.3756   46.7696 H       258      M_A    0.0000
   1811 H          34.0134   85.8856   45.3916 H       258      M_A    0.0000
   1812 H          36.3870   84.0250   44.9595 H       258      M_A    0.0000
   1813 H          34.9522   84.1761   43.9560 H       258      M_A    0.0000
   1814 C          34.4038   82.0198   44.9298 C.3     259      M_A    0.0000
   1815 C          35.3847   80.8598   45.0689 C.3     259      M_A    0.0000
   1816 O          34.7250   79.6181   44.8268 O.3     259      M_A    0.0000
   1817 H          33.3934   81.6817   45.1896 H       259      M_A    0.0000
   1818 H          34.3521   82.3517   43.8866 H       259      M_A    0.0000
   1819 H          35.7631   80.8118   46.0980 H       259      M_A    0.0000
   1820 H          36.2657   80.9850   44.4228 H       259      M_A    0.0000
   1821 C          35.6207   78.6266   44.3741 C.3     260      M_A    0.0000
   1822 C          35.3153   77.2636   44.9875 C.3     260      M_A    0.0000
   1823 O          35.7990   76.2187   44.1448 O.3     260      M_A    0.0000
   1824 H          35.5671   78.5595   43.2808 H       260      M_A    0.0000
   1825 H          36.6481   78.9278   44.6080 H       260      M_A    0.0000
   1826 H          34.2296   77.1218   45.0613 H       260      M_A    0.0000
   1827 H          35.7073   77.1749   46.0111 H       260      M_A    0.0000
   1828 C          35.9104   74.9944   44.8370 C.3     261      M_A    0.0000
   1829 C          34.8375   74.8510   45.9119 C.3     261      M_A    0.0000
   1830 O          34.5882   73.4730   46.1858 O.3     261      M_A    0.0000
   1831 H          35.8317   74.1648   44.1241 H       261      M_A    0.0000
   1832 H          36.9086   74.9159   45.2825 H       261      M_A    0.0000
   1833 H          33.8891   75.2696   45.5515 H       261      M_A    0.0000
   1834 H          35.0919   75.4076   46.8254 H       261      M_A    0.0000
   1835 C          35.7600   72.7962   46.5846 C.3     262      M_A    0.0000
   1836 C          35.6577   72.2806   48.0167 C.3     262      M_A    0.0000
   1837 O          36.3573   71.0444   48.1521 O.3     262      M_A    0.0000
   1838 H          35.9457   71.9574   45.9029 H       262      M_A    0.0000
   1839 H          36.6218   73.4653   46.4815 H       262      M_A    0.0000
   1840 H          34.6094   72.0697   48.2639 H       262      M_A    0.0000
   1841 H          36.0025   73.0253   48.7487 H       262      M_A    0.0000
   1842 C          36.5845   70.7145   49.5048 C.3     263      M_A    0.0000
   1843 C          36.7179   69.2083   49.7065 C.3     263      M_A    0.0000
   1844 O          37.7754   68.9201   50.6201 O.3     263      M_A    0.0000
   1845 H          37.4955   71.2156   49.8535 H       263      M_A    0.0000
   1846 H          35.7682   71.1102   50.1196 H       263      M_A    0.0000
   1847 H          36.9904   68.7270   48.7586 H       263      M_A    0.0000
   1848 H          35.7703   68.7491   50.0233 H       263      M_A    0.0000
   1849 C          38.2894   67.6193   50.4355 C.3     264      M_A    0.0000
   1850 C          37.8054   66.6593   51.5179 C.3     264      M_A    0.0000
   1851 O          38.0425   65.3077   51.1270 O.3     264      M_A    0.0000
   1852 H          37.9884   67.2455   49.4494 H       264      M_A    0.0000
   1853 H          39.3845   67.6574   50.4224 H       264      M_A    0.0000
   1854 H          36.7197   66.7569   51.6455 H       264      M_A    0.0000
   1855 H          38.2516   66.8836   52.4975 H       264      M_A    0.0000
   1856 C          39.2176   64.7901   51.7115 C.3     265      M_A    0.0000
   1857 C          39.0661   63.3177   52.0807 C.3     265      M_A    0.0000
   1858 O          40.3429   62.7352   52.3389 O.3     265      M_A    0.0000
   1859 H          40.0550   64.9113   51.0139 H       265      M_A    0.0000
   1860 H          39.4755   65.3804   52.5981 H       265      M_A    0.0000
   1861 H          38.6397   62.7624   51.2355 H       265      M_A    0.0000
   1862 H          38.3751   63.1729   52.9238 H       265      M_A    0.0000
   1863 C          40.4796   62.3454   53.6878 C.3     266      M_A    0.0000
   1864 C          39.4897   61.2474   54.0640 C.3     266      M_A    0.0000
   1865 O          40.0833   60.3372   54.9886 O.3     266      M_A    0.0000
   1866 H          41.5038   61.9948   53.8633 H       266      M_A    0.0000
   1867 H          40.3443   63.2185   54.3362 H       266      M_A    0.0000
   1868 H          39.2301   60.6579   53.1754 H       266      M_A    0.0000
   1869 H          38.5445   61.6580   54.4476 H       266      M_A    0.0000
   1870 C          40.5344   60.9916   56.1542 C.3     267      M_A    0.0000
   1871 C          40.9002   60.0012   57.2553 C.3     267      M_A    0.0000
   1872 O          42.1540   60.3486   57.8412 O.3     267      M_A    0.0000
   1873 H          41.4063   61.6103   55.9099 H       267      M_A    0.0000
   1874 H          39.7619   61.6845   56.5066 H       267      M_A    0.0000
   1875 H          41.0273   58.9981   56.8285 H       267      M_A    0.0000
   1876 H          40.1074   59.9150   58.0124 H       267      M_A    0.0000
   1877 C          42.6138   59.3523   58.7279 C.3     268      M_A    0.0000
   1878 C          44.1298   59.1938   58.6661 C.3     268      M_A    0.0000
   1879 O          44.6055   58.5018   59.8196 O.3     268      M_A    0.0000
   1880 H          42.3108   59.6073   59.7506 H       268      M_A    0.0000
   1881 H          42.1217   58.4009   58.4958 H       268      M_A    0.0000
   1882 H          44.6095   60.1808   58.6797 H       268      M_A    0.0000
   1883 H          44.4558   58.7062   57.7360 H       268      M_A    0.0000
   1884 C          45.7561   57.7364   59.5360 C.3     269      M_A    0.0000
   1885 C          46.6552   57.5891   60.7596 C.3     269      M_A    0.0000
   1886 O          47.6256   56.5655   60.5441 O.3     269      M_A    0.0000
   1887 H          45.4544   56.7446   59.1783 H       269      M_A    0.0000
   1888 H          46.3090   58.1995   58.7108 H       269      M_A    0.0000
   1889 H          46.0596   57.2713   61.6248 H       269      M_A    0.0000
   1890 H          47.1252   58.5419   61.0430 H       269      M_A    0.0000
   1891 C          48.9048   56.9500   60.9981 C.3     270      M_A    0.0000
   1892 C          48.8719   57.4316   62.4453 C.3     270      M_A    0.0000
   1893 O          50.0293   56.9798   63.1468 O.3     270      M_A    0.0000
   1894 H          49.5935   56.1015   60.9072 H       270      M_A    0.0000
   1895 H          49.3041   57.7342   60.3449 H       270      M_A    0.0000
   1896 H          48.0081   56.9967   62.9642 H       270      M_A    0.0000
   1897 H          48.7546   58.5228   62.5142 H       270      M_A    0.0000
   1898 C          51.0370   57.9663   63.1884 C.3     271      M_A    0.0000
   1899 C          52.1395   57.6094   64.1805 C.3     271      M_A    0.0000
   1900 O          53.4190   57.6947   63.5549 O.3     271      M_A    0.0000
   1901 H          51.4673   58.0894   62.1872 H       271      M_A    0.0000
   1902 H          50.5912   58.9336   63.4463 H       271      M_A    0.0000
   1903 H          52.0255   56.5679   64.5071 H       271      M_A    0.0000
   1904 H          52.0900   58.2243   65.0907 H       271      M_A    0.0000
   1905 C          54.4202   57.0566   64.3170 C.3     272      M_A    0.0000
   1906 C          54.3739   57.4795   65.7820 C.3     272      M_A    0.0000
   1907 O          55.1926   56.6206   66.5743 O.3     272      M_A    0.0000
   1908 H          54.2967   55.9695   64.2427 H       272      M_A    0.0000
   1909 H          55.4037   57.2786   63.8875 H       272      M_A    0.0000
   1910 H          53.3524   57.3742   66.1691 H       272      M_A    0.0000
   1911 H          54.6456   58.5367   65.9147 H       272      M_A    0.0000
   1912 C          56.2448   56.0569   65.8223 C.3     273      M_A    0.0000
   1913 C          57.5821   56.7237   66.1295 C.3     273      M_A    0.0000
   1914 O          58.6284   55.7539   66.1522 O.3     273      M_A    0.0000
   1915 H          56.3102   54.9832   66.0359 H       273      M_A    0.0000
   1916 H          56.0151   56.1386   64.7539 H       273      M_A    0.0000
   1917 H          57.5552   57.1710   67.1313 H       273      M_A    0.0000
   1918 H          57.8034   57.5445   65.4320 H       273      M_A    0.0000
   1919 C          59.9020   56.3524   66.0520 C.3     274      M_A    0.0000
   1920 C          60.0059   57.6114   66.9073 C.3     274      M_A    0.0000
   1921 O          61.2533   57.6417   67.5992 O.3     274      M_A    0.0000
   1922 H          60.6683   55.6317   66.3618 H       274      M_A    0.0000
   1923 H          60.1144   56.5864   65.0026 H       274      M_A    0.0000
   1924 H          59.2258   57.6041   67.6792 H       274      M_A    0.0000
   1925 H          59.8458   58.5252   66.3170 H       274      M_A    0.0000
   1926 C          61.9590   58.8394   67.3581 C.3     275      M_A    0.0000
   1927 C          61.7055   59.8762   68.4480 C.3     275      M_A    0.0000
   1928 O          62.7935   60.7962   68.5228 O.3     275      M_A    0.0000
   1929 H          63.0324   58.6233   67.2969 H       275      M_A    0.0000
   1930 H          61.6754   59.2398   66.3782 H       275      M_A    0.0000
   1931 H          61.6513   59.3835   69.4272 H       275      M_A    0.0000
   1932 H          60.7447   60.3929   68.3102 H       275      M_A    0.0000
   1933 C          63.6144   60.7335   67.3771 C.3     276      M_A    0.0000
   1934 C          64.7215   61.7825   67.4145 C.3     276      M_A    0.0000
   1935 O          65.9886   61.1783   67.1593 O.3     276      M_A    0.0000
   1936 H          64.0567   59.7330   67.3005 H       276      M_A    0.0000
   1937 H          62.9992   60.8611   66.4791 H       276      M_A    0.0000
   1938 H          64.7864   62.2216   68.4182 H       276      M_A    0.0000
   1939 H          64.5226   62.6166   66.7261 H       276      M_A    0.0000
   1940 C          66.3706   60.3004   68.1955 C.3     277      M_A    0.0000
   1941 C          67.6645   60.7470   68.8690 C.3     277      M_A    0.0000
   1942 O          67.4217   61.0975   70.2307 O.3     277      M_A    0.0000
   1943 H          65.5672   60.2448   68.9400 H       277      M_A    0.0000
   1944 H          66.4805   59.2867   67.7939 H       277      M_A    0.0000
   1945 H          68.0462   61.6529   68.3814 H       277      M_A    0.0000
   1946 H          68.4583   59.9914   68.7789 H       277      M_A    0.0000
   1947 C          68.5516   61.6934   70.8294 C.3     278      M_A    0.0000
   1948 C          68.8160   63.0904   70.2764 C.3     278      M_A    0.0000
   1949 O          69.7923   63.7635   71.0699 O.3     278      M_A    0.0000
   1950 H          68.4022   61.7483   71.9144 H       278      M_A    0.0000
   1951 H          69.4270   61.0518   70.6774 H       278      M_A    0.0000
   1952 H          67.9018   63.6947   70.3351 H       278      M_A    0.0000
   1953 H          69.1011   63.0664   69.2147 H       278      M_A    0.0000
   1954 C          70.7338   64.4497   70.2744 C.3     279      M_A    0.0000
   1955 C          70.0582   65.3744   69.2666 C.3     279      M_A    0.0000
   1956 O          70.5126   66.7159   69.4392 O.3     279      M_A    0.0000
   1957 H          71.4004   65.0329   70.9211 H       279      M_A    0.0000
   1958 H          71.3729   63.7250   69.7573 H       279      M_A    0.0000
   1959 H          68.9750   65.3913   69.4426 H       279      M_A    0.0000
   1960 H          70.1963   65.0282   68.2321 H       279      M_A    0.0000
   1961 C          71.7865   66.7657   70.0433 C.3     280      M_A    0.0000
   1962 C          72.3866   68.1670   69.9868 C.3     280      M_A    0.0000
   1963 O          73.0733   68.4639   71.2018 O.3     280      M_A    0.0000
   1964 H          71.7071   66.4401   71.0875 H       280      M_A    0.0000
   1965 H          72.4520   66.0464   69.5527 H       280      M_A    0.0000
   1966 H          71.5866   68.9127   69.8953 H       280      M_A    0.0000
   1967 H          73.0354   68.3027   69.1094 H       280      M_A    0.0000
   1968 C          74.2315   69.2371   70.9755 C.3     281      M_A    0.0000
   1969 C          74.2499   70.4963   71.8364 C.3     281      M_A    0.0000
   1970 O          75.5916   70.9284   72.0580 O.3     281      M_A    0.0000
   1971 H          75.1207   68.6316   71.1883 H       281      M_A    0.0000
   1972 H          74.2931   69.5010   69.9136 H       281      M_A    0.0000
   1973 H          73.8293   70.2783   72.8264 H       281      M_A    0.0000
   1974 H          73.6300   71.2975   71.4086 H       281      M_A    0.0000
   1975 C          76.3149   70.0118   72.8497 C.3     282      M_A    0.0000
   1976 C          77.8091   70.0551   72.5453 C.3     282      M_A    0.0000
   1977 O          78.5147   70.6990   73.6053 O.3     282      M_A    0.0000
   1978 H          76.1478   70.2358   73.9102 H       282      M_A    0.0000
   1979 H          75.9228   69.0011   72.6893 H       282      M_A    0.0000
   1980 H          77.9899   70.6566   71.6453 H       282      M_A    0.0000
   1981 H          78.2161   69.0556   72.3342 H       282      M_A    0.0000
   1982 C          79.6674   71.3663   73.1400 C.3     283      M_A    0.0000
   1983 C          80.9466   70.6529   73.5665 C.3     283      M_A    0.0000
   1984 O          82.0111   70.9595   72.6672 O.3     283      M_A    0.0000
   1985 H          79.6310   71.4360   72.0462 H       283      M_A    0.0000
   1986 H          79.6660   72.3984   73.5085 H       283      M_A    0.0000
   1987 H          80.8034   69.5661   73.5148 H       283      M_A    0.0000
   1988 H          81.2167   70.8783   74.6083 H       283      M_A    0.0000
   1989 C          83.2693   70.6182   73.2064 C.3     284      M_A    0.0000
   1990 C          84.4144   71.0772   72.3090 C.3     284      M_A    0.0000
   1991 O          85.6481   71.0551   73.0254 O.3     284      M_A    0.0000
   1992 H          83.3747   71.0711   74.1996 H       284      M_A    0.0000
   1993 H          83.3186   69.5345   73.3622 H       284      M_A    0.0000
   1994 H          84.2548   72.1190   72.0030 H       284      M_A    0.0000
   1995 H          84.4722   70.4896   71.3813 H       284      M_A    0.0000
   1996 C          86.6204   71.8811   72.4232 C.3     285      M_A    0.0000
   1997 C          87.9182   71.1258   72.1540 C.3     285      M_A    0.0000
   1998 O          89.0222   71.8041   72.7517 O.3     285      M_A    0.0000
   1999 H          86.2250   72.2821   71.4822 H       285      M_A    0.0000
   2000 H          86.8109   72.7489   73.0648 H       285      M_A    0.0000
   2001 H          88.1194   71.1012   71.0755 H       285      M_A    0.0000
   2002 H          87.8603   70.0773   72.4801 H       285      M_A    0.0000
   2003 C          90.0099   70.9038   73.2037 C.3     286      M_A    0.0000
   2004 C          90.3771   71.1510   74.6636 C.3     286      M_A    0.0000
   2005 O          91.2332   70.1154   75.1438 O.3     286      M_A    0.0000
   2006 H          89.6477   69.8757   73.0833 H       286      M_A    0.0000
   2007 H          90.8987   70.9871   72.5681 H       286      M_A    0.0000
   2008 H          89.4743   71.1177   75.2868 H       286      M_A    0.0000
   2009 H          90.8187   72.1466   74.8148 H       286      M_A    0.0000
   2010 C          92.1036   69.6447   74.1383 C.3     287      M_A    0.0000
   2011 C          93.3835   70.4714   74.0635 C.3     287      M_A    0.0000
   2012 O          94.4987   69.6359   73.7565 O.3     287      M_A    0.0000
   2013 H          92.3533   68.5951   74.3352 H       287      M_A    0.0000
   2014 H          91.5862   69.6557   73.1723 H       287      M_A    0.0000
   2015 H          93.5958   70.9209   75.0419 H       287      M_A    0.0000
   2016 H          93.2939   71.3069   73.3542 H       287      M_A    0.0000
   2017 C          95.5967   70.3803   73.2763 C.3     288      M_A    0.0000
   2018 C          96.7969   70.2897   74.2136 C.3     288      M_A    0.0000
   2019 O          97.9959   70.6363   73.5221 O.3     288      M_A    0.0000
   2020 H          95.8772   70.0145   72.2812 H       288      M_A    0.0000
   2021 H          95.2979   71.4259   73.1402 H       288      M_A    0.0000
   2022 H          96.9268   69.2550   74.5553 H       288      M_A    0.0000
   2023 H          96.6595   70.8978   75.1194 H       288      M_A    0.0000
   2024 C          99.1099   69.9226   74.0118 C.3     289      M_A    0.0000
   2025 C         100.2278   70.8569   74.4642 C.3     289      M_A    0.0000
   2026 O         101.1114   70.1804   75.3572 O.3     289      M_A    0.0000
   2027 H          98.7965   69.2893   74.8504 H       289      M_A    0.0000
   2028 H          99.4753   69.2388   73.2373 H       289      M_A    0.0000
   2029 H          99.8060   71.6989   75.0277 H       289      M_A    0.0000
   2030 H         100.7678   71.2963   73.6130 H       289      M_A    0.0000
   2031 C         102.3753   70.8041   75.4188 C.3     290      M_A    0.0000
   2032 C         102.2629   72.3231   75.3334 C.3     290      M_A    0.0000
   2033 O         103.2998   72.9426   76.0931 O.3     290      M_A    0.0000
   2034 H         102.8746   70.5231   76.3539 H       290      M_A    0.0000
   2035 H         103.0107   70.4233   74.6112 H       290      M_A    0.0000
   2036 H         101.3158   72.6534   75.7787 H       290      M_A    0.0000
   2037 H         102.2538   72.6780   74.2927 H       290      M_A    0.0000
   2038 C         104.5807   72.6014   75.6101 C.3     291      M_A    0.0000
   2039 C         105.5866   73.7278   75.8257 C.3     291      M_A    0.0000
   2040 O         106.9193   73.2410   75.6743 O.3     291      M_A    0.0000
   2041 H         104.9301   71.6930   76.1154 H       291      M_A    0.0000
   2042 H         104.5146   72.3484   74.5459 H       291      M_A    0.0000
   2043 H         105.5114   74.1043   76.8539 H       291      M_A    0.0000
   2044 H         105.3905   74.5873   75.1684 H       291      M_A    0.0000
   2045 C         107.8772   74.2054   76.0521 C.3     292      M_A    0.0000
   2046 C         107.7142   75.5039   75.2683 C.3     292      M_A    0.0000
   2047 O         108.3285   76.5868   75.9655 O.3     292      M_A    0.0000
   2048 H         107.7852   74.4085   77.1258 H       292      M_A    0.0000
   2049 H         108.8838   73.7970   75.9073 H       292      M_A    0.0000
   2050 H         106.6499   75.7575   75.1823 H       292      M_A    0.0000
   2051 H         108.0933   75.4152   74.2399 H       292      M_A    0.0000
   2052 C         109.7020   76.6953   75.6623 C.3     293      M_A    0.0000
   2053 C         110.1609   78.1496   75.6228 C.3     293      M_A    0.0000
   2054 O         111.5302   78.2503   76.0110 O.3     293      M_A    0.0000
   2055 H         110.2845   76.1448   76.4109 H       293      M_A    0.0000
   2056 H         109.9044   76.2059   74.7028 H       293      M_A    0.0000
   2057 H         109.5905   78.7413   76.3500 H       293      M_A    0.0000
   2058 H         109.9814   78.6121   74.6414 H       293      M_A    0.0000
   2059 C         112.4004   78.1146   74.9089 C.3     294      M_A    0.0000
   2060 C         113.7775   78.7039   75.1975 C.3     294      M_A    0.0000
   2061 O         114.3984   79.1347   73.9873 O.3     294      M_A    0.0000
   2062 H         112.4997   77.0530   74.6522 H       294      M_A    0.0000
   2063 H         111.9561   78.5970   74.0309 H       294      M_A    0.0000
   2064 H         114.4326   77.9324   75.6219 H       294      M_A    0.0000
   2065 H         113.7324   79.5123   75.9416 H       294      M_A    0.0000
   2066 C         115.7589   79.4548   74.1796 C.3     295      M_A    0.0000
   2067 C         115.9491   80.4733   75.2992 C.3     295      M_A    0.0000
   2068 O         117.2454   81.0643   75.2198 O.3     295      M_A    0.0000
   2069 H         116.3183   78.5409   74.4131 H       295      M_A    0.0000
   2070 H         116.1808   79.8357   73.2426 H       295      M_A    0.0000
   2071 H         115.8991   79.9710   76.2737 H       295      M_A    0.0000
   2072 H         115.1550   81.2338   75.3041 H       295      M_A    0.0000
   2073 C         117.5268   81.8671   76.3452 C.3     296      M_A    0.0000
   2074 C         118.6982   82.8104   76.0903 C.3     296      M_A    0.0000
   2075 O         119.5138   82.9179   77.2562 O.3     296      M_A    0.0000
   2076 H         116.6354   82.4488   76.6094 H       296      M_A    0.0000
   2077 H         117.7354   81.2256   77.2089 H       296      M_A    0.0000
   2078 H         118.3254   83.8212   75.8813 H       296      M_A    0.0000
   2079 H         119.2849   82.5108   75.2099 H       296      M_A    0.0000
   2080 C         120.8178   83.3584   76.9466 C.3     297      M_A    0.0000
   2081 C         120.8161   84.3897   75.8225 C.3     297      M_A    0.0000
   2082 O         121.9165   85.2863   75.9676 O.3     297      M_A    0.0000
   2083 H         121.2784   83.7907   77.8431 H       297      M_A    0.0000
   2084 H         121.4390   82.4981   76.6731 H       297      M_A    0.0000
   2085 H         119.9087   85.0043   75.8805 H       297      M_A    0.0000
   2086 H         120.8046   83.9174   74.8296 H       297      M_A    0.0000
   2087 C         123.1038   84.6089   76.3165 C.3     298      M_A    0.0000
   2088 C         124.2785   85.5689   76.4766 C.3     298      M_A    0.0000
   2089 O         124.3536   86.0442   77.8199 O.3     298      M_A    0.0000
   2090 H         122.9472   84.0583   77.2519 H       298      M_A    0.0000
   2091 H         123.3306   83.8532   75.5559 H       298      M_A    0.0000
   2092 H         124.1267   86.4536   75.8451 H       298      M_A    0.0000
   2093 H         125.2270   85.1179   76.1512 H       298      M_A    0.0000
   2094 C         124.5026   87.4461   77.8737 C.3     299      M_A    0.0000
   2095 C         124.8946   87.9215   79.2693 C.3     299      M_A    0.0000
   2096 O         126.0151   88.8020   79.1988 O.3     299      M_A    0.0000
   2097 H         125.2645   87.7592   77.1498 H       299      M_A    0.0000
   2098 H         123.5696   87.9254   77.5563 H       299      M_A    0.0000
   2099 H         125.2128   87.0667   79.8796 H       299      M_A    0.0000
   2100 H         124.0489   88.3812   79.8010 H       299      M_A    0.0000
   2101 C         126.1892   89.5279   80.3960 C.3     300      M_A    0.0000
   2102 C         125.7343   88.7301   81.6142 C.3     300      M_A    0.0000
   2103 O         126.4903   89.1041   82.7650 O.3     300      M_A    0.0000
   2104 H         127.2459   89.7995   80.5065 H       300      M_A    0.0000
   2105 H         125.6394   90.4738   80.3333 H       300      M_A    0.0000
   2106 H         125.9260   87.6615   81.4539 H       300      M_A    0.0000
   2107 H         124.6529   88.8256   81.7893 H       300      M_A    0.0000
   2108 C         127.2684   90.2574   82.5306 C.3     301      M_A    0.0000
   2109 C         127.3791   91.1298   83.7772 C.3     301      M_A    0.0000
   2110 O         128.7339   91.5234   83.9907 O.3     301      M_A    0.0000
   2111 H         128.2702   89.9593   82.1987 H       301      M_A    0.0000
   2112 H         126.8340   90.8294   81.7029 H       301      M_A    0.0000
   2113 H         127.0824   90.5546   84.6634 H       301      M_A    0.0000
   2114 H         126.7055   91.9978   83.7342 H       301      M_A    0.0000
   2115 C         128.9039   92.1692   85.2333 C.3     302      M_A    0.0000
   2116 C         130.3306   92.6770   85.4181 C.3     302      M_A    0.0000
   2117 O         130.3642   93.7271   86.3835 O.3     302      M_A    0.0000
   2118 H         128.2014   93.0081   85.3066 H       302      M_A    0.0000
   2119 H         128.6371   91.4804   86.0429 H       302      M_A    0.0000
   2120 H         130.6975   93.1104   84.4790 H       302      M_A    0.0000
   2121 H         131.0269   91.8657   85.6752 H       302      M_A    0.0000
   2122 C         131.4302   93.5698   87.2942 C.3     303      M_A    0.0000
   2123 C         131.5014   94.7243   88.2888 C.3     303      M_A    0.0000
   2124 O         131.9695   94.2624   89.5551 O.3     303      M_A    0.0000
   2125 H         131.3100   92.6235   87.8353 H       303      M_A    0.0000
   2126 H         132.3730   93.4841   86.7421 H       303      M_A    0.0000
   2127 H         130.4969   95.1311   88.4618 H       303      M_A    0.0000
   2128 H         132.1099   95.5581   87.9098 H       303      M_A    0.0000
   2129 C         132.9305   93.2386   89.4186 C.3     304      M_A    0.0000
   2130 C         133.4454   92.7598   90.7724 C.3     304      M_A    0.0000
   2131 O         133.4318   91.3344   90.8345 O.3     304      M_A    0.0000
   2132 H         132.4895   92.3959   88.8725 H       304      M_A    0.0000
   2133 H         133.7613   93.5971   88.8003 H       304      M_A    0.0000
   2134 H         132.7782   93.1091   91.5707 H       304      M_A    0.0000
   2135 H         134.4403   93.1675   91.0028 H       304      M_A    0.0000
   2136 C         134.4742   90.8336   91.6427 C.3     305      M_A    0.0000
   2137 C         133.9531   89.8831   92.7160 C.3     305      M_A    0.0000
   2138 O         134.6005   88.6156   92.6155 O.3     305      M_A    0.0000
   2139 H         135.2054   90.3132   91.0124 H       305      M_A    0.0000
   2140 H         135.0133   91.6693   92.1033 H       305      M_A    0.0000
   2141 H         132.8829   89.6952   92.5612 H       305      M_A    0.0000
   2142 H         134.0476   90.3091   93.7253 H       305      M_A    0.0000
   2143 C         134.2847   87.7763   93.7046 C.3     306      M_A    0.0000
   2144 C         134.2634   86.3056   93.2998 C.3     306      M_A    0.0000
   2145 O         134.5146   85.4740   94.4317 O.3     306      M_A    0.0000
   2146 H         135.0182   87.9279   94.5056 H       306      M_A    0.0000
   2147 H         133.3155   88.0700   94.1234 H       306      M_A    0.0000
   2148 H         135.0703   86.1033   92.5841 H       306      M_A    0.0000
   2149 H         133.3269   86.0309   92.7932 H       306      M_A    0.0000
   2150 C         133.8288   85.9261   95.5786 C.3     307      M_A    0.0000
   2151 C         133.2417   84.7693   96.3813 C.3     307      M_A    0.0000
   2152 O         134.1773   84.3159   97.3585 O.3     307      M_A    0.0000
   2153 H         134.5159   86.5021   96.2101 H       307      M_A    0.0000
   2154 H         133.0373   86.6229   95.2803 H       307      M_A    0.0000
   2155 H         133.0494   83.9151   95.7197 H       307      M_A    0.0000
   2156 H         132.2747   85.0309   96.8347 H       307      M_A    0.0000
   2157 C         133.7457   83.1297   97.9886 C.3     308      M_A    0.0000
   2158 C         133.8021   81.9329   97.0442 C.3     308      M_A    0.0000
   2159 O         134.9274   81.1104   97.3494 O.3     308      M_A    0.0000
   2160 H         134.3722   82.9359   98.8676 H       308      M_A    0.0000
   2161 H         132.7270   83.2673   98.3685 H       308      M_A    0.0000
   2162 H         133.9439   82.2778   96.0121 H       308      M_A    0.0000
   2163 H         132.8647   81.3582   97.0505 H       308      M_A    0.0000
   2164 C         135.4432   80.4775   96.1989 C.3     309      M_A    0.0000
   2165 C         136.1958   81.4560   95.3027 C.3     309      M_A    0.0000
   2166 O         136.7495   80.7755   94.1774 O.3     309      M_A    0.0000
   2167 H         136.1131   79.6635   96.5008 H       309      M_A    0.0000
   2168 H         134.6249   80.0048   95.6439 H       309      M_A    0.0000
   2169 H         137.0441   81.8871   95.8496 H       309      M_A    0.0000
   2170 H         135.5652   82.3030   94.9959 H       309      M_A    0.0000
   2171 H         136.0915   80.6607   93.4602 H       309      M_A    0.0000
   2172 H         105.2475   58.8867   21.2876 H         0      M_A    0.0000
@<TRIPOS>BOND
     1     1     2      1
     2     1     4      1
     3     1     5      1
     4     1  2172      1
     5     2     3      1
     6     2     6      1
     7     2     7      1
     8     3     8      1
     9     8     9      1
    10     8    11      1
    11     8    12      1
    12     9    10      1
    13     9    13      1
    14     9    14      1
    15    10    15      1
    16    15    16      1
    17    15    18      1
    18    15    19      1
    19    16    17      1
    20    16    20      1
    21    16    21      1
    22    17    22      1
    23    22    23      1
    24    22    25      1
    25    22    26      1
    26    23    24      1
    27    23    27      1
    28    23    28      1
    29    24    29      1
    30    29    30      1
    31    29    32      1
    32    29    33      1
    33    30    31      1
    34    30    34      1
    35    30    35      1
    36    31    36      1
    37    36    37      1
    38    36    39      1
    39    36    40      1
    40    37    38      1
    41    37    41      1
    42    37    42      1
    43    38    43      1
    44    43    44      1
    45    43    46      1
    46    43    47      1
    47    44    45      1
    48    44    48      1
    49    44    49      1
    50    45    50      1
    51    50    51      1
    52    50    53      1
    53    50    54      1
    54    51    52      1
    55    51    55      1
    56    51    56      1
    57    52    57      1
    58    57    58      1
    59    57    60      1
    60    57    61      1
    61    58    59      1
    62    58    62      1
    63    58    63      1
    64    59    64      1
    65    64    65      1
    66    64    67      1
    67    64    68      1
    68    65    66      1
    69    65    69      1
    70    65    70      1
    71    66    71      1
    72    71    72      1
    73    71    74      1
    74    71    75      1
    75    72    73      1
    76    72    76      1
    77    72    77      1
    78    73    78      1
    79    78    79      1
    80    78    81      1
    81    78    82      1
    82    79    80      1
    83    79    83      1
    84    79    84      1
    85    80    85      1
    86    85    86      1
    87    85    88      1
    88    85    89      1
    89    86    87      1
    90    86    90      1
    91    86    91      1
    92    87    92      1
    93    92    93      1
    94    92    95      1
    95    92    96      1
    96    93    94      1
    97    93    97      1
    98    93    98      1
    99    94    99      1
   100    99   100      1
   101    99   102      1
   102    99   103      1
   103   100   101      1
   104   100   104      1
   105   100   105      1
   106   101   106      1
   107   106   107      1
   108   106   109      1
   109   106   110      1
   110   107   108      1
   111   107   111      1
   112   107   112      1
   113   108   113      1
   114   113   114      1
   115   113   116      1
   116   113   117      1
   117   114   115      1
   118   114   118      1
   119   114   119      1
   120   115   120      1
   121   120   121      1
   122   120   123      1
   123   120   124      1
   124   121   122      1
   125   121   125      1
   126   121   126      1
   127   122   127      1
   128   127   128      1
   129   127   130      1
   130   127   131      1
   131   128   129      1
   132   128   132      1
   133   128   133      1
   134   129   134      1
   135   134   135      1
   136   134   137      1
   137   134   138      1
   138   135   136      1
   139   135   139      1
   140   135   140      1
   141   136   141      1
   142   141   142      1
   143   141   144      1
   144   141   145      1
   145   142   143      1
   146   142   146      1
   147   142   147      1
   148   143   148      1
   149   148   149      1
   150   148   151      1
   151   148   152      1
   152   149   150      1
   153   149   153      1
   154   149   154      1
   155   150   155      1
   156   155   156      1
   157   155   158      1
   158   155   159      1
   159   156   157      1
   160   156   160      1
   161   156   161      1
   162   157   162      1
   163   162   163      1
   164   162   165      1
   165   162   166      1
   166   163   164      1
   167   163   167      1
   168   163   168      1
   169   164   169      1
   170   169   170      1
   171   169   172      1
   172   169   173      1
   173   170   171      1
   174   170   174      1
   175   170   175      1
   176   171   176      1
   177   176   177      1
   178   176   179      1
   179   176   180      1
   180   177   178      1
   181   177   181      1
   182   177   182      1
   183   178   183      1
   184   183   184      1
   185   183   186      1
   186   183   187      1
   187   184   185      1
   188   184   188      1
   189   184   189      1
   190   185   190      1
   191   190   191      1
   192   190   193      1
   193   190   194      1
   194   191   192      1
   195   191   195      1
   196   191   196      1
   197   192   197      1
   198   197   198      1
   199   197   200      1
   200   197   201      1
   201   198   199      1
   202   198   202      1
   203   198   203      1
   204   199   204      1
   205   204   205      1
   206   204   207      1
   207   204   208      1
   208   205   206      1
   209   205   209      1
   210   205   210      1
   211   206   211      1
   212   211   212      1
   213   211   214      1
   214   211   215      1
   215   212   213      1
   216   212   216      1
   217   212   217      1
   218   213   218      1
   219   218   219      1
   220   218   221      1
   221   218   222      1
   222   219   220      1
   223   219   223      1
   224   219   224      1
   225   220   225      1
   226   225   226      1
   227   225   228      1
   228   225   229      1
   229   226   227      1
   230   226   230      1
   231   226   231      1
   232   227   232      1
   233   232   233      1
   234   232   235      1
   235   232   236      1
   236   233   234      1
   237   233   237      1
   238   233   238      1
   239   234   239      1
   240   239   240      1
   241   239   242      1
   242   239   243      1
   243   240   241      1
   244   240   244      1
   245   240   245      1
   246   241   246      1
   247   246   247      1
   248   246   249      1
   249   246   250      1
   250   247   248      1
   251   247   251      1
   252   247   252      1
   253   248   253      1
   254   253   254      1
   255   253   256      1
   256   253   257      1
   257   254   255      1
   258   254   258      1
   259   254   259      1
   260   255   260      1
   261   260   261      1
   262   260   263      1
   263   260   264      1
   264   261   262      1
   265   261   265      1
   266   261   266      1
   267   262   267      1
   268   267   268      1
   269   267   270      1
   270   267   271      1
   271   268   269      1
   272   268   272      1
   273   268   273      1
   274   269   274      1
   275   274   275      1
   276   274   277      1
   277   274   278      1
   278   275   276      1
   279   275   279      1
   280   275   280      1
   281   276   281      1
   282   281   282      1
   283   281   284      1
   284   281   285      1
   285   282   283      1
   286   282   286      1
   287   282   287      1
   288   283   288      1
   289   288   289      1
   290   288   291      1
   291   288   292      1
   292   289   290      1
   293   289   293      1
   294   289   294      1
   295   290   295      1
   296   295   296      1
   297   295   298      1
   298   295   299      1
   299   296   297      1
   300   296   300      1
   301   296   301      1
   302   297   302      1
   303   302   303      1
   304   302   305      1
   305   302   306      1
   306   303   304      1
   307   303   307      1
   308   303   308      1
   309   304   309      1
   310   309   310      1
   311   309   312      1
   312   309   313      1
   313   310   311      1
   314   310   314      1
   315   310   315      1
   316   311   316      1
   317   316   317      1
   318   316   319      1
   319   316   320      1
   320   317   318      1
   321   317   321      1
   322   317   322      1
   323   318   323      1
   324   323   324      1
   325   323   326      1
   326   323   327      1
   327   324   325      1
   328   324   328      1
   329   324   329      1
   330   325   330      1
   331   330   331      1
   332   330   333      1
   333   330   334      1
   334   331   332      1
   335   331   335      1
   336   331   336      1
   337   332   337      1
   338   337   338      1
   339   337   340      1
   340   337   341      1
   341   338   339      1
   342   338   342      1
   343   338   343      1
   344   339   344      1
   345   344   345      1
   346   344   347      1
   347   344   348      1
   348   345   346      1
   349   345   349      1
   350   345   350      1
   351   346   351      1
   352   351   352      1
   353   351   354      1
   354   351   355      1
   355   352   353      1
   356   352   356      1
   357   352   357      1
   358   353   358      1
   359   358   359      1
   360   358   361      1
   361   358   362      1
   362   359   360      1
   363   359   363      1
   364   359   364      1
   365   360   365      1
   366   365   366      1
   367   365   368      1
   368   365   369      1
   369   366   367      1
   370   366   370      1
   371   366   371      1
   372   367   372      1
   373   372   373      1
   374   372   375      1
   375   372   376      1
   376   373   374      1
   377   373   377      1
   378   373   378      1
   379   374   379      1
   380   379   380      1
   381   379   382      1
   382   379   383      1
   383   380   381      1
   384   380   384      1
   385   380   385      1
   386   381   386      1
   387   386   387      1
   388   386   389      1
   389   386   390      1
   390   387   388      1
   391   387   391      1
   392   387   392      1
   393   388   393      1
   394   393   394      1
   395   393   396      1
   396   393   397      1
   397   394   395      1
   398   394   398      1
   399   394   399      1
   400   395   400      1
   401   400   401      1
   402   400   403      1
   403   400   404      1
   404   401   402      1
   405   401   405      1
   406   401   406      1
   407   402   407      1
   408   407   408      1
   409   407   410      1
   410   407   411      1
   411   408   409      1
   412   408   412      1
   413   408   413      1
   414   409   414      1
   415   414   415      1
   416   414   417      1
   417   414   418      1
   418   415   416      1
   419   415   419      1
   420   415   420      1
   421   416   421      1
   422   421   422      1
   423   421   424      1
   424   421   425      1
   425   422   423      1
   426   422   426      1
   427   422   427      1
   428   423   428      1
   429   428   429      1
   430   428   431      1
   431   428   432      1
   432   429   430      1
   433   429   433      1
   434   429   434      1
   435   430   435      1
   436   435   436      1
   437   435   438      1
   438   435   439      1
   439   436   437      1
   440   436   440      1
   441   436   441      1
   442   437   442      1
   443   442   443      1
   444   442   445      1
   445   442   446      1
   446   443   444      1
   447   443   447      1
   448   443   448      1
   449   444   449      1
   450   449   450      1
   451   449   452      1
   452   449   453      1
   453   450   451      1
   454   450   454      1
   455   450   455      1
   456   451   456      1
   457   456   457      1
   458   456   459      1
   459   456   460      1
   460   457   458      1
   461   457   461      1
   462   457   462      1
   463   458   463      1
   464   463   464      1
   465   463   466      1
   466   463   467      1
   467   464   465      1
   468   464   468      1
   469   464   469      1
   470   465   470      1
   471   470   471      1
   472   470   473      1
   473   470   474      1
   474   471   472      1
   475   471   475      1
   476   471   476      1
   477   472   477      1
   478   477   478      1
   479   477   480      1
   480   477   481      1
   481   478   479      1
   482   478   482      1
   483   478   483      1
   484   479   484      1
   485   484   485      1
   486   484   487      1
   487   484   488      1
   488   485   486      1
   489   485   489      1
   490   485   490      1
   491   486   491      1
   492   491   492      1
   493   491   494      1
   494   491   495      1
   495   492   493      1
   496   492   496      1
   497   492   497      1
   498   493   498      1
   499   498   499      1
   500   498   501      1
   501   498   502      1
   502   499   500      1
   503   499   503      1
   504   499   504      1
   505   500   505      1
   506   505   506      1
   507   505   508      1
   508   505   509      1
   509   506   507      1
   510   506   510      1
   511   506   511      1
   512   507   512      1
   513   512   513      1
   514   512   515      1
   515   512   516      1
   516   513   514      1
   517   513   517      1
   518   513   518      1
   519   514   519      1
   520   519   520      1
   521   519   522      1
   522   519   523      1
   523   520   521      1
   524   520   524      1
   525   520   525      1
   526   521   526      1
   527   526   527      1
   528   526   529      1
   529   526   530      1
   530   527   528      1
   531   527   531      1
   532   527   532      1
   533   528   533      1
   534   533   534      1
   535   533   536      1
   536   533   537      1
   537   534   535      1
   538   534   538      1
   539   534   539      1
   540   535   540      1
   541   540   541      1
   542   540   543      1
   543   540   544      1
   544   541   542      1
   545   541   545      1
   546   541   546      1
   547   542   547      1
   548   547   548      1
   549   547   550      1
   550   547   551      1
   551   548   549      1
   552   548   552      1
   553   548   553      1
   554   549   554      1
   555   554   555      1
   556   554   557      1
   557   554   558      1
   558   555   556      1
   559   555   559      1
   560   555   560      1
   561   556   561      1
   562   561   562      1
   563   561   564      1
   564   561   565      1
   565   562   563      1
   566   562   566      1
   567   562   567      1
   568   563   568      1
   569   568   569      1
   570   568   571      1
   571   568   572      1
   572   569   570      1
   573   569   573      1
   574   569   574      1
   575   570   575      1
   576   575   576      1
   577   575   578      1
   578   575   579      1
   579   576   577      1
   580   576   580      1
   581   576   581      1
   582   577   582      1
   583   582   583      1
   584   582   585      1
   585   582   586      1
   586   583   584      1
   587   583   587      1
   588   583   588      1
   589   584   589      1
   590   589   590      1
   591   589   592      1
   592   589   593      1
   593   590   591      1
   594   590   594      1
   595   590   595      1
   596   591   596      1
   597   596   597      1
   598   596   599      1
   599   596   600      1
   600   597   598      1
   601   597   601      1
   602   597   602      1
   603   598   603      1
   604   603   604      1
   605   603   606      1
   606   603   607      1
   607   604   605      1
   608   604   608      1
   609   604   609      1
   610   605   610      1
   611   610   611      1
   612   610   613      1
   613   610   614      1
   614   611   612      1
   615   611   615      1
   616   611   616      1
   617   612   617      1
   618   617   618      1
   619   617   620      1
   620   617   621      1
   621   618   619      1
   622   618   622      1
   623   618   623      1
   624   619   624      1
   625   624   625      1
   626   624   627      1
   627   624   628      1
   628   625   626      1
   629   625   629      1
   630   625   630      1
   631   626   631      1
   632   631   632      1
   633   631   634      1
   634   631   635      1
   635   632   633      1
   636   632   636      1
   637   632   637      1
   638   633   638      1
   639   638   639      1
   640   638   641      1
   641   638   642      1
   642   639   640      1
   643   639   643      1
   644   639   644      1
   645   640   645      1
   646   645   646      1
   647   645   648      1
   648   645   649      1
   649   646   647      1
   650   646   650      1
   651   646   651      1
   652   647   652      1
   653   652   653      1
   654   652   655      1
   655   652   656      1
   656   653   654      1
   657   653   657      1
   658   653   658      1
   659   654   659      1
   660   659   660      1
   661   659   662      1
   662   659   663      1
   663   660   661      1
   664   660   664      1
   665   660   665      1
   666   661   666      1
   667   666   667      1
   668   666   669      1
   669   666   670      1
   670   667   668      1
   671   667   671      1
   672   667   672      1
   673   668   673      1
   674   673   674      1
   675   673   676      1
   676   673   677      1
   677   674   675      1
   678   674   678      1
   679   674   679      1
   680   675   680      1
   681   680   681      1
   682   680   683      1
   683   680   684      1
   684   681   682      1
   685   681   685      1
   686   681   686      1
   687   682   687      1
   688   687   688      1
   689   687   690      1
   690   687   691      1
   691   688   689      1
   692   688   692      1
   693   688   693      1
   694   689   694      1
   695   694   695      1
   696   694   697      1
   697   694   698      1
   698   695   696      1
   699   695   699      1
   700   695   700      1
   701   696   701      1
   702   701   702      1
   703   701   704      1
   704   701   705      1
   705   702   703      1
   706   702   706      1
   707   702   707      1
   708   703   708      1
   709   708   709      1
   710   708   711      1
   711   708   712      1
   712   709   710      1
   713   709   713      1
   714   709   714      1
   715   710   715      1
   716   715   716      1
   717   715   718      1
   718   715   719      1
   719   716   717      1
   720   716   720      1
   721   716   721      1
   722   717   722      1
   723   722   723      1
   724   722   725      1
   725   722   726      1
   726   723   724      1
   727   723   727      1
   728   723   728      1
   729   724   729      1
   730   729   730      1
   731   729   732      1
   732   729   733      1
   733   730   731      1
   734   730   734      1
   735   730   735      1
   736   731   736      1
   737   736   737      1
   738   736   739      1
   739   736   740      1
   740   737   738      1
   741   737   741      1
   742   737   742      1
   743   738   743      1
   744   743   744      1
   745   743   746      1
   746   743   747      1
   747   744   745      1
   748   744   748      1
   749   744   749      1
   750   745   750      1
   751   750   751      1
   752   750   753      1
   753   750   754      1
   754   751   752      1
   755   751   755      1
   756   751   756      1
   757   752   757      1
   758   757   758      1
   759   757   760      1
   760   757   761      1
   761   758   759      1
   762   758   762      1
   763   758   763      1
   764   759   764      1
   765   764   765      1
   766   764   767      1
   767   764   768      1
   768   765   766      1
   769   765   769      1
   770   765   770      1
   771   766   771      1
   772   771   772      1
   773   771   774      1
   774   771   775      1
   775   772   773      1
   776   772   776      1
   777   772   777      1
   778   773   778      1
   779   778   779      1
   780   778   781      1
   781   778   782      1
   782   779   780      1
   783   779   783      1
   784   779   784      1
   785   780   785      1
   786   785   786      1
   787   785   788      1
   788   785   789      1
   789   786   787      1
   790   786   790      1
   791   786   791      1
   792   787   792      1
   793   792   793      1
   794   792   795      1
   795   792   796      1
   796   793   794      1
   797   793   797      1
   798   793   798      1
   799   794   799      1
   800   799   800      1
   801   799   802      1
   802   799   803      1
   803   800   801      1
   804   800   804      1
   805   800   805      1
   806   801   806      1
   807   806   807      1
   808   806   809      1
   809   806   810      1
   810   807   808      1
   811   807   811      1
   812   807   812      1
   813   808   813      1
   814   813   814      1
   815   813   816      1
   816   813   817      1
   817   814   815      1
   818   814   818      1
   819   814   819      1
   820   815   820      1
   821   820   821      1
   822   820   823      1
   823   820   824      1
   824   821   822      1
   825   821   825      1
   826   821   826      1
   827   822   827      1
   828   827   828      1
   829   827   830      1
   830   827   831      1
   831   828   829      1
   832   828   832      1
   833   828   833      1
   834   829   834      1
   835   834   835      1
   836   834   837      1
   837   834   838      1
   838   835   836      1
   839   835   839      1
   840   835   840      1
   841   836   841      1
   842   841   842      1
   843   841   844      1
   844   841   845      1
   845   842   843      1
   846   842   846      1
   847   842   847      1
   848   843   848      1
   849   848   849      1
   850   848   851      1
   851   848   852      1
   852   849   850      1
   853   849   853      1
   854   849   854      1
   855   850   855      1
   856   855   856      1
   857   855   858      1
   858   855   859      1
   859   856   857      1
   860   856   860      1
   861   856   861      1
   862   857   862      1
   863   862   863      1
   864   862   865      1
   865   862   866      1
   866   863   864      1
   867   863   867      1
   868   863   868      1
   869   864   869      1
   870   869   870      1
   871   869   872      1
   872   869   873      1
   873   870   871      1
   874   870   874      1
   875   870   875      1
   876   871   876      1
   877   876   877      1
   878   876   879      1
   879   876   880      1
   880   877   878      1
   881   877   881      1
   882   877   882      1
   883   878   883      1
   884   883   884      1
   885   883   886      1
   886   883   887      1
   887   884   885      1
   888   884   888      1
   889   884   889      1
   890   885   890      1
   891   890   891      1
   892   890   893      1
   893   890   894      1
   894   891   892      1
   895   891   895      1
   896   891   896      1
   897   892   897      1
   898   897   898      1
   899   897   900      1
   900   897   901      1
   901   898   899      1
   902   898   902      1
   903   898   903      1
   904   899   904      1
   905   904   905      1
   906   904   907      1
   907   904   908      1
   908   905   906      1
   909   905   909      1
   910   905   910      1
   911   906   911      1
   912   911   912      1
   913   911   914      1
   914   911   915      1
   915   912   913      1
   916   912   916      1
   917   912   917      1
   918   913   918      1
   919   918   919      1
   920   918   921      1
   921   918   922      1
   922   919   920      1
   923   919   923      1
   924   919   924      1
   925   920   925      1
   926   925   926      1
   927   925   928      1
   928   925   929      1
   929   926   927      1
   930   926   930      1
   931   926   931      1
   932   927   932      1
   933   932   933      1
   934   932   935      1
   935   932   936      1
   936   933   934      1
   937   933   937      1
   938   933   938      1
   939   934   939      1
   940   939   940      1
   941   939   942      1
   942   939   943      1
   943   940   941      1
   944   940   944      1
   945   940   945      1
   946   941   946      1
   947   946   947      1
   948   946   949      1
   949   946   950      1
   950   947   948      1
   951   947   951      1
   952   947   952      1
   953   948   953      1
   954   953   954      1
   955   953   956      1
   956   953   957      1
   957   954   955      1
   958   954   958      1
   959   954   959      1
   960   955   960      1
   961   960   961      1
   962   960   963      1
   963   960   964      1
   964   961   962      1
   965   961   965      1
   966   961   966      1
   967   962   967      1
   968   967   968      1
   969   967   970      1
   970   967   971      1
   971   968   969      1
   972   968   972      1
   973   968   973      1
   974   969   974      1
   975   974   975      1
   976   974   977      1
   977   974   978      1
   978   975   976      1
   979   975   979      1
   980   975   980      1
   981   976   981      1
   982   981   982      1
   983   981   984      1
   984   981   985      1
   985   982   983      1
   986   982   986      1
   987   982   987      1
   988   983   988      1
   989   988   989      1
   990   988   991      1
   991   988   992      1
   992   989   990      1
   993   989   993      1
   994   989   994      1
   995   990   995      1
   996   995   996      1
   997   995   998      1
   998   995   999      1
   999   996   997      1
  1000   996  1000      1
  1001   996  1001      1
  1002   997  1002      1
  1003  1002  1003      1
  1004  1002  1005      1
  1005  1002  1006      1
  1006  1003  1004      1
  1007  1003  1007      1
  1008  1003  1008      1
  1009  1004  1009      1
  1010  1009  1010      1
  1011  1009  1012      1
  1012  1009  1013      1
  1013  1010  1011      1
  1014  1010  1014      1
  1015  1010  1015      1
  1016  1011  1016      1
  1017  1016  1017      1
  1018  1016  1019      1
  1019  1016  1020      1
  1020  1017  1018      1
  1021  1017  1021      1
  1022  1017  1022      1
  1023  1018  1023      1
  1024  1023  1024      1
  1025  1023  1026      1
  1026  1023  1027      1
  1027  1024  1025      1
  1028  1024  1028      1
  1029  1024  1029      1
  1030  1025  1030      1
  1031  1030  1031      1
  1032  1030  1033      1
  1033  1030  1034      1
  1034  1031  1032      1
  1035  1031  1035      1
  1036  1031  1036      1
  1037  1032  1037      1
  1038  1037  1038      1
  1039  1037  1040      1
  1040  1037  1041      1
  1041  1038  1039      1
  1042  1038  1042      1
  1043  1038  1043      1
  1044  1039  1044      1
  1045  1044  1045      1
  1046  1044  1047      1
  1047  1044  1048      1
  1048  1045  1046      1
  1049  1045  1049      1
  1050  1045  1050      1
  1051  1046  1051      1
  1052  1051  1052      1
  1053  1051  1054      1
  1054  1051  1055      1
  1055  1052  1053      1
  1056  1052  1056      1
  1057  1052  1057      1
  1058  1053  1058      1
  1059  1058  1059      1
  1060  1058  1061      1
  1061  1058  1062      1
  1062  1059  1060      1
  1063  1059  1063      1
  1064  1059  1064      1
  1065  1060  1065      1
  1066  1065  1066      1
  1067  1065  1068      1
  1068  1065  1069      1
  1069  1066  1067      1
  1070  1066  1070      1
  1071  1066  1071      1
  1072  1067  1072      1
  1073  1072  1073      1
  1074  1072  1075      1
  1075  1072  1076      1
  1076  1073  1074      1
  1077  1073  1077      1
  1078  1073  1078      1
  1079  1074  1079      1
  1080  1079  1080      1
  1081  1079  1082      1
  1082  1079  1083      1
  1083  1080  1081      1
  1084  1080  1084      1
  1085  1080  1085      1
  1086  1081  1086      1
  1087  1086  1087      1
  1088  1086  1089      1
  1089  1086  1090      1
  1090  1087  1088      1
  1091  1087  1091      1
  1092  1087  1092      1
  1093  1088  1093      1
  1094  1093  1094      1
  1095  1093  1096      1
  1096  1093  1097      1
  1097  1094  1095      1
  1098  1094  1098      1
  1099  1094  1099      1
  1100  1095  1100      1
  1101  1100  1101      1
  1102  1100  1103      1
  1103  1100  1104      1
  1104  1101  1102      1
  1105  1101  1105      1
  1106  1101  1106      1
  1107  1102  1107      1
  1108  1107  1108      1
  1109  1107  1110      1
  1110  1107  1111      1
  1111  1108  1109      1
  1112  1108  1112      1
  1113  1108  1113      1
  1114  1109  1114      1
  1115  1114  1115      1
  1116  1114  1117      1
  1117  1114  1118      1
  1118  1115  1116      1
  1119  1115  1119      1
  1120  1115  1120      1
  1121  1116  1121      1
  1122  1121  1122      1
  1123  1121  1124      1
  1124  1121  1125      1
  1125  1122  1123      1
  1126  1122  1126      1
  1127  1122  1127      1
  1128  1123  1128      1
  1129  1128  1129      1
  1130  1128  1131      1
  1131  1128  1132      1
  1132  1129  1130      1
  1133  1129  1133      1
  1134  1129  1134      1
  1135  1130  1135      1
  1136  1135  1136      1
  1137  1135  1138      1
  1138  1135  1139      1
  1139  1136  1137      1
  1140  1136  1140      1
  1141  1136  1141      1
  1142  1137  1142      1
  1143  1142  1143      1
  1144  1142  1145      1
  1145  1142  1146      1
  1146  1143  1144      1
  1147  1143  1147      1
  1148  1143  1148      1
  1149  1144  1149      1
  1150  1149  1150      1
  1151  1149  1152      1
  1152  1149  1153      1
  1153  1150  1151      1
  1154  1150  1154      1
  1155  1150  1155      1
  1156  1151  1156      1
  1157  1156  1157      1
  1158  1156  1159      1
  1159  1156  1160      1
  1160  1157  1158      1
  1161  1157  1161      1
  1162  1157  1162      1
  1163  1158  1163      1
  1164  1163  1164      1
  1165  1163  1166      1
  1166  1163  1167      1
  1167  1164  1165      1
  1168  1164  1168      1
  1169  1164  1169      1
  1170  1165  1170      1
  1171  1170  1171      1
  1172  1170  1173      1
  1173  1170  1174      1
  1174  1171  1172      1
  1175  1171  1175      1
  1176  1171  1176      1
  1177  1172  1177      1
  1178  1177  1178      1
  1179  1177  1180      1
  1180  1177  1181      1
  1181  1178  1179      1
  1182  1178  1182      1
  1183  1178  1183      1
  1184  1179  1184      1
  1185  1184  1185      1
  1186  1184  1187      1
  1187  1184  1188      1
  1188  1185  1186      1
  1189  1185  1189      1
  1190  1185  1190      1
  1191  1186  1191      1
  1192  1191  1192      1
  1193  1191  1194      1
  1194  1191  1195      1
  1195  1192  1193      1
  1196  1192  1196      1
  1197  1192  1197      1
  1198  1193  1198      1
  1199  1198  1199      1
  1200  1198  1201      1
  1201  1198  1202      1
  1202  1199  1200      1
  1203  1199  1203      1
  1204  1199  1204      1
  1205  1200  1205      1
  1206  1205  1206      1
  1207  1205  1208      1
  1208  1205  1209      1
  1209  1206  1207      1
  1210  1206  1210      1
  1211  1206  1211      1
  1212  1207  1212      1
  1213  1212  1213      1
  1214  1212  1215      1
  1215  1212  1216      1
  1216  1213  1214      1
  1217  1213  1217      1
  1218  1213  1218      1
  1219  1214  1219      1
  1220  1219  1220      1
  1221  1219  1222      1
  1222  1219  1223      1
  1223  1220  1221      1
  1224  1220  1224      1
  1225  1220  1225      1
  1226  1221  1226      1
  1227  1226  1227      1
  1228  1226  1229      1
  1229  1226  1230      1
  1230  1227  1228      1
  1231  1227  1231      1
  1232  1227  1232      1
  1233  1228  1233      1
  1234  1233  1234      1
  1235  1233  1236      1
  1236  1233  1237      1
  1237  1234  1235      1
  1238  1234  1238      1
  1239  1234  1239      1
  1240  1235  1240      1
  1241  1240  1241      1
  1242  1240  1243      1
  1243  1240  1244      1
  1244  1241  1242      1
  1245  1241  1245      1
  1246  1241  1246      1
  1247  1242  1247      1
  1248  1247  1248      1
  1249  1247  1250      1
  1250  1247  1251      1
  1251  1248  1249      1
  1252  1248  1252      1
  1253  1248  1253      1
  1254  1249  1254      1
  1255  1254  1255      1
  1256  1254  1257      1
  1257  1254  1258      1
  1258  1255  1256      1
  1259  1255  1259      1
  1260  1255  1260      1
  1261  1256  1261      1
  1262  1261  1262      1
  1263  1261  1264      1
  1264  1261  1265      1
  1265  1262  1263      1
  1266  1262  1266      1
  1267  1262  1267      1
  1268  1263  1268      1
  1269  1268  1269      1
  1270  1268  1271      1
  1271  1268  1272      1
  1272  1269  1270      1
  1273  1269  1273      1
  1274  1269  1274      1
  1275  1270  1275      1
  1276  1275  1276      1
  1277  1275  1278      1
  1278  1275  1279      1
  1279  1276  1277      1
  1280  1276  1280      1
  1281  1276  1281      1
  1282  1277  1282      1
  1283  1282  1283      1
  1284  1282  1285      1
  1285  1282  1286      1
  1286  1283  1284      1
  1287  1283  1287      1
  1288  1283  1288      1
  1289  1284  1289      1
  1290  1289  1290      1
  1291  1289  1292      1
  1292  1289  1293      1
  1293  1290  1291      1
  1294  1290  1294      1
  1295  1290  1295      1
  1296  1291  1296      1
  1297  1296  1297      1
  1298  1296  1299      1
  1299  1296  1300      1
  1300  1297  1298      1
  1301  1297  1301      1
  1302  1297  1302      1
  1303  1298  1303      1
  1304  1303  1304      1
  1305  1303  1306      1
  1306  1303  1307      1
  1307  1304  1305      1
  1308  1304  1308      1
  1309  1304  1309      1
  1310  1305  1310      1
  1311  1310  1311      1
  1312  1310  1313      1
  1313  1310  1314      1
  1314  1311  1312      1
  1315  1311  1315      1
  1316  1311  1316      1
  1317  1312  1317      1
  1318  1317  1318      1
  1319  1317  1320      1
  1320  1317  1321      1
  1321  1318  1319      1
  1322  1318  1322      1
  1323  1318  1323      1
  1324  1319  1324      1
  1325  1324  1325      1
  1326  1324  1327      1
  1327  1324  1328      1
  1328  1325  1326      1
  1329  1325  1329      1
  1330  1325  1330      1
  1331  1326  1331      1
  1332  1331  1332      1
  1333  1331  1334      1
  1334  1331  1335      1
  1335  1332  1333      1
  1336  1332  1336      1
  1337  1332  1337      1
  1338  1333  1338      1
  1339  1338  1339      1
  1340  1338  1341      1
  1341  1338  1342      1
  1342  1339  1340      1
  1343  1339  1343      1
  1344  1339  1344      1
  1345  1340  1345      1
  1346  1345  1346      1
  1347  1345  1348      1
  1348  1345  1349      1
  1349  1346  1347      1
  1350  1346  1350      1
  1351  1346  1351      1
  1352  1347  1352      1
  1353  1352  1353      1
  1354  1352  1355      1
  1355  1352  1356      1
  1356  1353  1354      1
  1357  1353  1357      1
  1358  1353  1358      1
  1359  1354  1359      1
  1360  1359  1360      1
  1361  1359  1362      1
  1362  1359  1363      1
  1363  1360  1361      1
  1364  1360  1364      1
  1365  1360  1365      1
  1366  1361  1366      1
  1367  1366  1367      1
  1368  1366  1369      1
  1369  1366  1370      1
  1370  1367  1368      1
  1371  1367  1371      1
  1372  1367  1372      1
  1373  1368  1373      1
  1374  1373  1374      1
  1375  1373  1376      1
  1376  1373  1377      1
  1377  1374  1375      1
  1378  1374  1378      1
  1379  1374  1379      1
  1380  1375  1380      1
  1381  1380  1381      1
  1382  1380  1383      1
  1383  1380  1384      1
  1384  1381  1382      1
  1385  1381  1385      1
  1386  1381  1386      1
  1387  1382  1387      1
  1388  1387  1388      1
  1389  1387  1390      1
  1390  1387  1391      1
  1391  1388  1389      1
  1392  1388  1392      1
  1393  1388  1393      1
  1394  1389  1394      1
  1395  1394  1395      1
  1396  1394  1397      1
  1397  1394  1398      1
  1398  1395  1396      1
  1399  1395  1399      1
  1400  1395  1400      1
  1401  1396  1401      1
  1402  1401  1402      1
  1403  1401  1404      1
  1404  1401  1405      1
  1405  1402  1403      1
  1406  1402  1406      1
  1407  1402  1407      1
  1408  1403  1408      1
  1409  1408  1409      1
  1410  1408  1411      1
  1411  1408  1412      1
  1412  1409  1410      1
  1413  1409  1413      1
  1414  1409  1414      1
  1415  1410  1415      1
  1416  1415  1416      1
  1417  1415  1418      1
  1418  1415  1419      1
  1419  1416  1417      1
  1420  1416  1420      1
  1421  1416  1421      1
  1422  1417  1422      1
  1423  1422  1423      1
  1424  1422  1425      1
  1425  1422  1426      1
  1426  1423  1424      1
  1427  1423  1427      1
  1428  1423  1428      1
  1429  1424  1429      1
  1430  1429  1430      1
  1431  1429  1432      1
  1432  1429  1433      1
  1433  1430  1431      1
  1434  1430  1434      1
  1435  1430  1435      1
  1436  1431  1436      1
  1437  1436  1437      1
  1438  1436  1439      1
  1439  1436  1440      1
  1440  1437  1438      1
  1441  1437  1441      1
  1442  1437  1442      1
  1443  1438  1443      1
  1444  1443  1444      1
  1445  1443  1446      1
  1446  1443  1447      1
  1447  1444  1445      1
  1448  1444  1448      1
  1449  1444  1449      1
  1450  1445  1450      1
  1451  1450  1451      1
  1452  1450  1453      1
  1453  1450  1454      1
  1454  1451  1452      1
  1455  1451  1455      1
  1456  1451  1456      1
  1457  1452  1457      1
  1458  1457  1458      1
  1459  1457  1460      1
  1460  1457  1461      1
  1461  1458  1459      1
  1462  1458  1462      1
  1463  1458  1463      1
  1464  1459  1464      1
  1465  1464  1465      1
  1466  1464  1467      1
  1467  1464  1468      1
  1468  1465  1466      1
  1469  1465  1469      1
  1470  1465  1470      1
  1471  1466  1471      1
  1472  1471  1472      1
  1473  1471  1474      1
  1474  1471  1475      1
  1475  1472  1473      1
  1476  1472  1476      1
  1477  1472  1477      1
  1478  1473  1478      1
  1479  1478  1479      1
  1480  1478  1481      1
  1481  1478  1482      1
  1482  1479  1480      1
  1483  1479  1483      1
  1484  1479  1484      1
  1485  1480  1485      1
  1486  1485  1486      1
  1487  1485  1488      1
  1488  1485  1489      1
  1489  1486  1487      1
  1490  1486  1490      1
  1491  1486  1491      1
  1492  1487  1492      1
  1493  1492  1493      1
  1494  1492  1495      1
  1495  1492  1496      1
  1496  1493  1494      1
  1497  1493  1497      1
  1498  1493  1498      1
  1499  1494  1499      1
  1500  1499  1500      1
  1501  1499  1502      1
  1502  1499  1503      1
  1503  1500  1501      1
  1504  1500  1504      1
  1505  1500  1505      1
  1506  1501  1506      1
  1507  1506  1507      1
  1508  1506  1509      1
  1509  1506  1510      1
  1510  1507  1508      1
  1511  1507  1511      1
  1512  1507  1512      1
  1513  1508  1513      1
  1514  1513  1514      1
  1515  1513  1516      1
  1516  1513  1517      1
  1517  1514  1515      1
  1518  1514  1518      1
  1519  1514  1519      1
  1520  1515  1520      1
  1521  1520  1521      1
  1522  1520  1523      1
  1523  1520  1524      1
  1524  1521  1522      1
  1525  1521  1525      1
  1526  1521  1526      1
  1527  1522  1527      1
  1528  1527  1528      1
  1529  1527  1530      1
  1530  1527  1531      1
  1531  1528  1529      1
  1532  1528  1532      1
  1533  1528  1533      1
  1534  1529  1534      1
  1535  1534  1535      1
  1536  1534  1537      1
  1537  1534  1538      1
  1538  1535  1536      1
  1539  1535  1539      1
  1540  1535  1540      1
  1541  1536  1541      1
  1542  1541  1542      1
  1543  1541  1544      1
  1544  1541  1545      1
  1545  1542  1543      1
  1546  1542  1546      1
  1547  1542  1547      1
  1548  1543  1548      1
  1549  1548  1549      1
  1550  1548  1551      1
  1551  1548  1552      1
  1552  1549  1550      1
  1553  1549  1553      1
  1554  1549  1554      1
  1555  1550  1555      1
  1556  1555  1556      1
  1557  1555  1558      1
  1558  1555  1559      1
  1559  1556  1557      1
  1560  1556  1560      1
  1561  1556  1561      1
  1562  1557  1562      1
  1563  1562  1563      1
  1564  1562  1565      1
  1565  1562  1566      1
  1566  1563  1564      1
  1567  1563  1567      1
  1568  1563  1568      1
  1569  1564  1569      1
  1570  1569  1570      1
  1571  1569  1572      1
  1572  1569  1573      1
  1573  1570  1571      1
  1574  1570  1574      1
  1575  1570  1575      1
  1576  1571  1576      1
  1577  1576  1577      1
  1578  1576  1579      1
  1579  1576  1580      1
  1580  1577  1578      1
  1581  1577  1581      1
  1582  1577  1582      1
  1583  1578  1583      1
  1584  1583  1584      1
  1585  1583  1586      1
  1586  1583  1587      1
  1587  1584  1585      1
  1588  1584  1588      1
  1589  1584  1589      1
  1590  1585  1590      1
  1591  1590  1591      1
  1592  1590  1593      1
  1593  1590  1594      1
  1594  1591  1592      1
  1595  1591  1595      1
  1596  1591  1596      1
  1597  1592  1597      1
  1598  1597  1598      1
  1599  1597  1600      1
  1600  1597  1601      1
  1601  1598  1599      1
  1602  1598  1602      1
  1603  1598  1603      1
  1604  1599  1604      1
  1605  1604  1605      1
  1606  1604  1607      1
  1607  1604  1608      1
  1608  1605  1606      1
  1609  1605  1609      1
  1610  1605  1610      1
  1611  1606  1611      1
  1612  1611  1612      1
  1613  1611  1614      1
  1614  1611  1615      1
  1615  1612  1613      1
  1616  1612  1616      1
  1617  1612  1617      1
  1618  1613  1618      1
  1619  1618  1619      1
  1620  1618  1621      1
  1621  1618  1622      1
  1622  1619  1620      1
  1623  1619  1623      1
  1624  1619  1624      1
  1625  1620  1625      1
  1626  1625  1626      1
  1627  1625  1628      1
  1628  1625  1629      1
  1629  1626  1627      1
  1630  1626  1630      1
  1631  1626  1631      1
  1632  1627  1632      1
  1633  1632  1633      1
  1634  1632  1635      1
  1635  1632  1636      1
  1636  1633  1634      1
  1637  1633  1637      1
  1638  1633  1638      1
  1639  1634  1639      1
  1640  1639  1640      1
  1641  1639  1642      1
  1642  1639  1643      1
  1643  1640  1641      1
  1644  1640  1644      1
  1645  1640  1645      1
  1646  1641  1646      1
  1647  1646  1647      1
  1648  1646  1649      1
  1649  1646  1650      1
  1650  1647  1648      1
  1651  1647  1651      1
  1652  1647  1652      1
  1653  1648  1653      1
  1654  1653  1654      1
  1655  1653  1656      1
  1656  1653  1657      1
  1657  1654  1655      1
  1658  1654  1658      1
  1659  1654  1659      1
  1660  1655  1660      1
  1661  1660  1661      1
  1662  1660  1663      1
  1663  1660  1664      1
  1664  1661  1662      1
  1665  1661  1665      1
  1666  1661  1666      1
  1667  1662  1667      1
  1668  1667  1668      1
  1669  1667  1670      1
  1670  1667  1671      1
  1671  1668  1669      1
  1672  1668  1672      1
  1673  1668  1673      1
  1674  1669  1674      1
  1675  1674  1675      1
  1676  1674  1677      1
  1677  1674  1678      1
  1678  1675  1676      1
  1679  1675  1679      1
  1680  1675  1680      1
  1681  1676  1681      1
  1682  1681  1682      1
  1683  1681  1684      1
  1684  1681  1685      1
  1685  1682  1683      1
  1686  1682  1686      1
  1687  1682  1687      1
  1688  1683  1688      1
  1689  1688  1689      1
  1690  1688  1691      1
  1691  1688  1692      1
  1692  1689  1690      1
  1693  1689  1693      1
  1694  1689  1694      1
  1695  1690  1695      1
  1696  1695  1696      1
  1697  1695  1698      1
  1698  1695  1699      1
  1699  1696  1697      1
  1700  1696  1700      1
  1701  1696  1701      1
  1702  1697  1702      1
  1703  1702  1703      1
  1704  1702  1705      1
  1705  1702  1706      1
  1706  1703  1704      1
  1707  1703  1707      1
  1708  1703  1708      1
  1709  1704  1709      1
  1710  1709  1710      1
  1711  1709  1712      1
  1712  1709  1713      1
  1713  1710  1711      1
  1714  1710  1714      1
  1715  1710  1715      1
  1716  1711  1716      1
  1717  1716  1717      1
  1718  1716  1719      1
  1719  1716  1720      1
  1720  1717  1718      1
  1721  1717  1721      1
  1722  1717  1722      1
  1723  1718  1723      1
  1724  1723  1724      1
  1725  1723  1726      1
  1726  1723  1727      1
  1727  1724  1725      1
  1728  1724  1728      1
  1729  1724  1729      1
  1730  1725  1730      1
  1731  1730  1731      1
  1732  1730  1733      1
  1733  1730  1734      1
  1734  1731  1732      1
  1735  1731  1735      1
  1736  1731  1736      1
  1737  1732  1737      1
  1738  1737  1738      1
  1739  1737  1740      1
  1740  1737  1741      1
  1741  1738  1739      1
  1742  1738  1742      1
  1743  1738  1743      1
  1744  1739  1744      1
  1745  1744  1745      1
  1746  1744  1747      1
  1747  1744  1748      1
  1748  1745  1746      1
  1749  1745  1749      1
  1750  1745  1750      1
  1751  1746  1751      1
  1752  1751  1752      1
  1753  1751  1754      1
  1754  1751  1755      1
  1755  1752  1753      1
  1756  1752  1756      1
  1757  1752  1757      1
  1758  1753  1758      1
  1759  1758  1759      1
  1760  1758  1761      1
  1761  1758  1762      1
  1762  1759  1760      1
  1763  1759  1763      1
  1764  1759  1764      1
  1765  1760  1765      1
  1766  1765  1766      1
  1767  1765  1768      1
  1768  1765  1769      1
  1769  1766  1767      1
  1770  1766  1770      1
  1771  1766  1771      1
  1772  1767  1772      1
  1773  1772  1773      1
  1774  1772  1775      1
  1775  1772  1776      1
  1776  1773  1774      1
  1777  1773  1777      1
  1778  1773  1778      1
  1779  1774  1779      1
  1780  1779  1780      1
  1781  1779  1782      1
  1782  1779  1783      1
  1783  1780  1781      1
  1784  1780  1784      1
  1785  1780  1785      1
  1786  1781  1786      1
  1787  1786  1787      1
  1788  1786  1789      1
  1789  1786  1790      1
  1790  1787  1788      1
  1791  1787  1791      1
  1792  1787  1792      1
  1793  1788  1793      1
  1794  1793  1794      1
  1795  1793  1796      1
  1796  1793  1797      1
  1797  1794  1795      1
  1798  1794  1798      1
  1799  1794  1799      1
  1800  1795  1800      1
  1801  1800  1801      1
  1802  1800  1803      1
  1803  1800  1804      1
  1804  1801  1802      1
  1805  1801  1805      1
  1806  1801  1806      1
  1807  1802  1807      1
  1808  1807  1808      1
  1809  1807  1810      1
  1810  1807  1811      1
  1811  1808  1809      1
  1812  1808  1812      1
  1813  1808  1813      1
  1814  1809  1814      1
  1815  1814  1815      1
  1816  1814  1817      1
  1817  1814  1818      1
  1818  1815  1816      1
  1819  1815  1819      1
  1820  1815  1820      1
  1821  1816  1821      1
  1822  1821  1822      1
  1823  1821  1824      1
  1824  1821  1825      1
  1825  1822  1823      1
  1826  1822  1826      1
  1827  1822  1827      1
  1828  1823  1828      1
  1829  1828  1829      1
  1830  1828  1831      1
  1831  1828  1832      1
  1832  1829  1830      1
  1833  1829  1833      1
  1834  1829  1834      1
  1835  1830  1835      1
  1836  1835  1836      1
  1837  1835  1838      1
  1838  1835  1839      1
  1839  1836  1837      1
  1840  1836  1840      1
  1841  1836  1841      1
  1842  1837  1842      1
  1843  1842  1843      1
  1844  1842  1845      1
  1845  1842  1846      1
  1846  1843  1844      1
  1847  1843  1847      1
  1848  1843  1848      1
  1849  1844  1849      1
  1850  1849  1850      1
  1851  1849  1852      1
  1852  1849  1853      1
  1853  1850  1851      1
  1854  1850  1854      1
  1855  1850  1855      1
  1856  1851  1856      1
  1857  1856  1857      1
  1858  1856  1859      1
  1859  1856  1860      1
  1860  1857  1858      1
  1861  1857  1861      1
  1862  1857  1862      1
  1863  1858  1863      1
  1864  1863  1864      1
  1865  1863  1866      1
  1866  1863  1867      1
  1867  1864  1865      1
  1868  1864  1868      1
  1869  1864  1869      1
  1870  1865  1870      1
  1871  1870  1871      1
  1872  1870  1873      1
  1873  1870  1874      1
  1874  1871  1872      1
  1875  1871  1875      1
  1876  1871  1876      1
  1877  1872  1877      1
  1878  1877  1878      1
  1879  1877  1880      1
  1880  1877  1881      1
  1881  1878  1879      1
  1882  1878  1882      1
  1883  1878  1883      1
  1884  1879  1884      1
  1885  1884  1885      1
  1886  1884  1887      1
  1887  1884  1888      1
  1888  1885  1886      1
  1889  1885  1889      1
  1890  1885  1890      1
  1891  1886  1891      1
  1892  1891  1892      1
  1893  1891  1894      1
  1894  1891  1895      1
  1895  1892  1893      1
  1896  1892  1896      1
  1897  1892  1897      1
  1898  1893  1898      1
  1899  1898  1899      1
  1900  1898  1901      1
  1901  1898  1902      1
  1902  1899  1900      1
  1903  1899  1903      1
  1904  1899  1904      1
  1905  1900  1905      1
  1906  1905  1906      1
  1907  1905  1908      1
  1908  1905  1909      1
  1909  1906  1907      1
  1910  1906  1910      1
  1911  1906  1911      1
  1912  1907  1912      1
  1913  1912  1913      1
  1914  1912  1915      1
  1915  1912  1916      1
  1916  1913  1914      1
  1917  1913  1917      1
  1918  1913  1918      1
  1919  1914  1919      1
  1920  1919  1920      1
  1921  1919  1922      1
  1922  1919  1923      1
  1923  1920  1921      1
  1924  1920  1924      1
  1925  1920  1925      1
  1926  1921  1926      1
  1927  1926  1927      1
  1928  1926  1929      1
  1929  1926  1930      1
  1930  1927  1928      1
  1931  1927  1931      1
  1932  1927  1932      1
  1933  1928  1933      1
  1934  1933  1934      1
  1935  1933  1936      1
  1936  1933  1937      1
  1937  1934  1935      1
  1938  1934  1938      1
  1939  1934  1939      1
  1940  1935  1940      1
  1941  1940  1941      1
  1942  1940  1943      1
  1943  1940  1944      1
  1944  1941  1942      1
  1945  1941  1945      1
  1946  1941  1946      1
  1947  1942  1947      1
  1948  1947  1948      1
  1949  1947  1950      1
  1950  1947  1951      1
  1951  1948  1949      1
  1952  1948  1952      1
  1953  1948  1953      1
  1954  1949  1954      1
  1955  1954  1955      1
  1956  1954  1957      1
  1957  1954  1958      1
  1958  1955  1956      1
  1959  1955  1959      1
  1960  1955  1960      1
  1961  1956  1961      1
  1962  1961  1962      1
  1963  1961  1964      1
  1964  1961  1965      1
  1965  1962  1963      1
  1966  1962  1966      1
  1967  1962  1967      1
  1968  1963  1968      1
  1969  1968  1969      1
  1970  1968  1971      1
  1971  1968  1972      1
  1972  1969  1970      1
  1973  1969  1973      1
  1974  1969  1974      1
  1975  1970  1975      1
  1976  1975  1976      1
  1977  1975  1978      1
  1978  1975  1979      1
  1979  1976  1977      1
  1980  1976  1980      1
  1981  1976  1981      1
  1982  1977  1982      1
  1983  1982  1983      1
  1984  1982  1985      1
  1985  1982  1986      1
  1986  1983  1984      1
  1987  1983  1987      1
  1988  1983  1988      1
  1989  1984  1989      1
  1990  1989  1990      1
  1991  1989  1992      1
  1992  1989  1993      1
  1993  1990  1991      1
  1994  1990  1994      1
  1995  1990  1995      1
  1996  1991  1996      1
  1997  1996  1997      1
  1998  1996  1999      1
  1999  1996  2000      1
  2000  1997  1998      1
  2001  1997  2001      1
  2002  1997  2002      1
  2003  1998  2003      1
  2004  2003  2004      1
  2005  2003  2006      1
  2006  2003  2007      1
  2007  2004  2005      1
  2008  2004  2008      1
  2009  2004  2009      1
  2010  2005  2010      1
  2011  2010  2011      1
  2012  2010  2013      1
  2013  2010  2014      1
  2014  2011  2012      1
  2015  2011  2015      1
  2016  2011  2016      1
  2017  2012  2017      1
  2018  2017  2018      1
  2019  2017  2020      1
  2020  2017  2021      1
  2021  2018  2019      1
  2022  2018  2022      1
  2023  2018  2023      1
  2024  2019  2024      1
  2025  2024  2025      1
  2026  2024  2027      1
  2027  2024  2028      1
  2028  2025  2026      1
  2029  2025  2029      1
  2030  2025  2030      1
  2031  2026  2031      1
  2032  2031  2032      1
  2033  2031  2034      1
  2034  2031  2035      1
  2035  2032  2033      1
  2036  2032  2036      1
  2037  2032  2037      1
  2038  2033  2038      1
  2039  2038  2039      1
  2040  2038  2041      1
  2041  2038  2042      1
  2042  2039  2040      1
  2043  2039  2043      1
  2044  2039  2044      1
  2045  2040  2045      1
  2046  2045  2046      1
  2047  2045  2048      1
  2048  2045  2049      1
  2049  2046  2047      1
  2050  2046  2050      1
  2051  2046  2051      1
  2052  2047  2052      1
  2053  2052  2053      1
  2054  2052  2055      1
  2055  2052  2056      1
  2056  2053  2054      1
  2057  2053  2057      1
  2058  2053  2058      1
  2059  2054  2059      1
  2060  2059  2060      1
  2061  2059  2062      1
  2062  2059  2063      1
  2063  2060  2061      1
  2064  2060  2064      1
  2065  2060  2065      1
  2066  2061  2066      1
  2067  2066  2067      1
  2068  2066  2069      1
  2069  2066  2070      1
  2070  2067  2068      1
  2071  2067  2071      1
  2072  2067  2072      1
  2073  2068  2073      1
  2074  2073  2074      1
  2075  2073  2076      1
  2076  2073  2077      1
  2077  2074  2075      1
  2078  2074  2078      1
  2079  2074  2079      1
  2080  2075  2080      1
  2081  2080  2081      1
  2082  2080  2083      1
  2083  2080  2084      1
  2084  2081  2082      1
  2085  2081  2085      1
  2086  2081  2086      1
  2087  2082  2087      1
  2088  2087  2088      1
  2089  2087  2090      1
  2090  2087  2091      1
  2091  2088  2089      1
  2092  2088  2092      1
  2093  2088  2093      1
  2094  2089  2094      1
  2095  2094  2095      1
  2096  2094  2097      1
  2097  2094  2098      1
  2098  2095  2096      1
  2099  2095  2099      1
  2100  2095  2100      1
  2101  2096  2101      1
  2102  2101  2102      1
  2103  2101  2104      1
  2104  2101  2105      1
  2105  2102  2103      1
  2106  2102  2106      1
  2107  2102  2107      1
  2108  2103  2108      1
  2109  2108  2109      1
  2110  2108  2111      1
  2111  2108  2112      1
  2112  2109  2110      1
  2113  2109  2113      1
  2114  2109  2114      1
  2115  2110  2115      1
  2116  2115  2116      1
  2117  2115  2118      1
  2118  2115  2119      1
  2119  2116  2117      1
  2120  2116  2120      1
  2121  2116  2121      1
  2122  2117  2122      1
  2123  2122  2123      1
  2124  2122  2125      1
  2125  2122  2126      1
  2126  2123  2124      1
  2127  2123  2127      1
  2128  2123  2128      1
  2129  2124  2129      1
  2130  2129  2130      1
  2131  2129  2132      1
  2132  2129  2133      1
  2133  2130  2131      1
  2134  2130  2134      1
  2135  2130  2135      1
  2136  2131  2136      1
  2137  2136  2137      1
  2138  2136  2139      1
  2139  2136  2140      1
  2140  2137  2138      1
  2141  2137  2141      1
  2142  2137  2142      1
  2143  2138  2143      1
  2144  2143  2144      1
  2145  2143  2146      1
  2146  2143  2147      1
  2147  2144  2145      1
  2148  2144  2148      1
  2149  2144  2149      1
  2150  2145  2150      1
  2151  2150  2151      1
  2152  2150  2153      1
  2153  2150  2154      1
  2154  2151  2152      1
  2155  2151  2155      1
  2156  2151  2156      1
  2157  2152  2157      1
  2158  2157  2158      1
  2159  2157  2160      1
  2160  2157  2161      1
  2161  2158  2159      1
  2162  2158  2162      1
  2163  2158  2163      1
  2164  2159  2164      1
  2165  2164  2165      1
  2166  2164  2167      1
  2167  2164  2168      1
  2168  2165  2166      1
  2169  2165  2169      1
  2170  2165  2170      1
  2171  2166  2171      1
