###
### Created by PolyChef-cpp17 on Mon May 12 10:39:10 2025
###

@<TRIPOS>MOLECULE
NO_INFO
191 190 1 0 0
SMALL
USER_CHARGES


@<TRIPOS>ATOM
      1 C          56.0740  141.9267   98.1559 C.3       0      M_A    0.0000
      2 C          56.7421  143.0443   97.3610 C.3       0      M_A    0.0000
      3 O          58.0774  142.6795   97.0148 O.3       0      M_A    0.0000
      4 H          56.3648  140.9541   97.7410 H         0      M_A    0.0000
      5 H          56.4301  141.9313   99.1923 H         0      M_A    0.0000
      6 H          56.7082  144.0060   97.8932 H         0      M_A    0.0000
      7 H          56.2098  143.1989   96.4138 H         0      M_A    0.0000
      8 C          58.9324  142.6887   98.1369 C.3       1      M_A    0.0000
      9 C          60.3956  142.5279   97.7364 C.3       1      M_A    0.0000
     10 O          61.2486  143.1026   98.7254 O.3       1      M_A    0.0000
     11 H          58.6457  141.8797   98.8196 H         1      M_A    0.0000
     12 H          58.7910  143.6202   98.6967 H         1      M_A    0.0000
     13 H          60.5971  142.9394   96.7368 H         1      M_A    0.0000
     14 H          60.6548  141.4626   97.6878 H         1      M_A    0.0000
     15 C          62.5212  143.4162   98.2036 C.3       2      M_A    0.0000
     16 C          62.4535  144.5520   97.1875 C.3       2      M_A    0.0000
     17 O          63.5623  144.4857   96.2920 O.3       2      M_A    0.0000
     18 H          62.9511  142.5243   97.7320 H         2      M_A    0.0000
     19 H          63.1981  143.6794   99.0244 H         2      M_A    0.0000
     20 H          62.3811  145.5359   97.6731 H         2      M_A    0.0000
     21 H          61.5523  144.4475   96.5699 H         2      M_A    0.0000
     22 C          63.9812  143.1567   96.0717 C.3       3      M_A    0.0000
     23 C          65.2320  143.0933   95.2006 C.3       3      M_A    0.0000
     24 O          65.3811  141.7907   94.6376 O.3       3      M_A    0.0000
     25 H          63.1701  142.5939   95.5942 H         3      M_A    0.0000
     26 H          64.1626  142.6662   97.0348 H         3      M_A    0.0000
     27 H          66.1327  143.4047   95.7492 H         3      M_A    0.0000
     28 H          65.1335  143.7850   94.3543 H         3      M_A    0.0000
     29 C          66.7360  141.4072   94.5518 C.3       4      M_A    0.0000
     30 C          67.1131  140.9686   93.1402 C.3       4      M_A    0.0000
     31 O          67.9837  139.8391   93.1856 O.3       4      M_A    0.0000
     32 H          66.9279  140.5887   95.2561 H         4      M_A    0.0000
     33 H          67.3725  142.2388   94.8750 H         4      M_A    0.0000
     34 H          67.5459  141.7923   92.5543 H         4      M_A    0.0000
     35 H          66.2160  140.6441   92.5976 H         4      M_A    0.0000
     36 C          68.0113  139.1471   91.9565 C.3       5      M_A    0.0000
     37 C          69.4363  138.9495   91.4488 C.3       5      M_A    0.0000
     38 O          69.4316  138.6633   90.0510 O.3       5      M_A    0.0000
     39 H          67.4285  139.7034   91.2125 H         5      M_A    0.0000
     40 H          67.5100  138.1793   92.0705 H         5      M_A    0.0000
     41 H          69.9743  138.1790   92.0199 H         5      M_A    0.0000
     42 H          70.0086  139.8778   91.5710 H         5      M_A    0.0000
     43 C          70.4671  137.7745   89.6931 C.3       6      M_A    0.0000
     44 C          71.5241  138.4540   88.8281 C.3       6      M_A    0.0000
     45 O          71.9478  137.5811   87.7820 O.3       6      M_A    0.0000
     46 H          70.0425  136.9195   89.1532 H         6      M_A    0.0000
     47 H          70.9245  137.3621   90.5996 H         6      M_A    0.0000
     48 H          72.3739  138.8168   89.4243 H         6      M_A    0.0000
     49 H          71.0944  139.3366   88.3374 H         6      M_A    0.0000
     50 C          72.7420  138.2512   86.8278 C.3       7      M_A    0.0000
     51 C          73.0350  137.3722   85.6158 C.3       7      M_A    0.0000
     52 O          73.3140  138.1782   84.4720 O.3       7      M_A    0.0000
     53 H          73.6845  138.5636   87.2935 H         7      M_A    0.0000
     54 H          72.2390  139.1737   86.5164 H         7      M_A    0.0000
     55 H          72.2242  136.6556   85.4205 H         7      M_A    0.0000
     56 H          73.9366  136.7735   85.7977 H         7      M_A    0.0000
     57 C          73.2111  137.4422   83.2728 C.3       8      M_A    0.0000
     58 C          73.6277  135.9871   83.4629 C.3       8      M_A    0.0000
     59 O          74.2298  135.4819   82.2720 O.3       8      M_A    0.0000
     60 H          73.8396  137.9086   82.5045 H         8      M_A    0.0000
     61 H          72.1833  137.4980   82.8966 H         8      M_A    0.0000
     62 H          72.7886  135.3577   83.7929 H         8      M_A    0.0000
     63 H          74.3916  135.9165   84.2477 H         8      M_A    0.0000
     64 C          75.4756  134.8726   82.5307 C.3       9      M_A    0.0000
     65 C          75.9069  133.9567   81.3895 C.3       9      M_A    0.0000
     66 O          76.8453  132.9882   81.8558 O.3       9      M_A    0.0000
     67 H          75.4129  134.2970   83.4621 H         9      M_A    0.0000
     68 H          76.2320  135.6464   82.7045 H         9      M_A    0.0000
     69 H          76.2988  134.5227   80.5321 H         9      M_A    0.0000
     70 H          75.0427  133.3928   81.0159 H         9      M_A    0.0000
     71 C          77.9949  133.5930   82.4063 C.3      10      M_A    0.0000
     72 C          79.2469  132.7551   82.1658 C.3      10      M_A    0.0000
     73 O          80.4088  133.5831   82.1717 O.3      10      M_A    0.0000
     74 H          77.8494  133.7380   83.4835 H        10      M_A    0.0000
     75 H          78.1200  134.5952   81.9810 H        10      M_A    0.0000
     76 H          79.1749  132.1618   81.2428 H        10      M_A    0.0000
     77 H          79.3776  132.0353   82.9839 H        10      M_A    0.0000
     78 C          81.5661  132.8621   82.5342 C.3      11      M_A    0.0000
     79 C          81.8897  131.7646   81.5252 C.3      11      M_A    0.0000
     80 O          83.3010  131.5794   81.4266 O.3      11      M_A    0.0000
     81 H          81.4230  132.4197   83.5274 H        11      M_A    0.0000
     82 H          82.4117  133.5524   82.6302 H        11      M_A    0.0000
     83 H          81.4356  131.9604   80.5431 H        11      M_A    0.0000
     84 H          81.4770  130.8075   81.8689 H        11      M_A    0.0000
     85 C          83.6284  130.3909   80.7405 C.3      12      M_A    0.0000
     86 C          82.9058  130.2921   79.4006 C.3      12      M_A    0.0000
     87 O          83.7132  129.6000   78.4493 O.3      12      M_A    0.0000
     88 H          83.3687  129.5272   81.3644 H        12      M_A    0.0000
     89 H          84.7132  130.3411   80.5927 H        12      M_A    0.0000
     90 H          82.5924  131.2778   79.0275 H        12      M_A    0.0000
     91 H          81.9882  129.7007   79.5137 H        12      M_A    0.0000
     92 C          85.0668  129.5528   78.8443 C.3      13      M_A    0.0000
     93 C          85.9777  130.2382   77.8306 C.3      13      M_A    0.0000
     94 O          87.2550  129.6030   77.7995 O.3      13      M_A    0.0000
     95 H          85.3735  128.5072   78.9682 H        13      M_A    0.0000
     96 H          85.1763  130.0182   79.8304 H        13      M_A    0.0000
     97 H          86.0650  131.3181   78.0186 H        13      M_A    0.0000
     98 H          85.5581  130.1353   76.8217 H        13      M_A    0.0000
     99 C          87.8317  129.6452   76.5127 C.3      14      M_A    0.0000
    100 C          87.6942  131.0239   75.8745 C.3      14      M_A    0.0000
    101 O          88.7027  131.2168   74.8837 O.3      14      M_A    0.0000
    102 H          87.3523  128.8935   75.8742 H        14      M_A    0.0000
    103 H          88.8876  129.3584   76.5758 H        14      M_A    0.0000
    104 H          87.7017  131.8281   76.6244 H        14      M_A    0.0000
    105 H          86.7317  131.0998   75.3527 H        14      M_A    0.0000
    106 C          89.7266  132.0755   75.3363 C.3      15      M_A    0.0000
    107 C          90.4512  132.7539   74.1779 C.3      15      M_A    0.0000
    108 O          91.7698  133.1332   74.5692 O.3      15      M_A    0.0000
    109 H          90.4443  131.5020   75.9352 H        15      M_A    0.0000
    110 H          89.3018  132.8265   76.0119 H        15      M_A    0.0000
    111 H          89.8837  133.6076   73.7799 H        15      M_A    0.0000
    112 H          90.5680  132.0482   73.3456 H        15      M_A    0.0000
    113 C          92.6553  133.1640   73.4713 C.3      16      M_A    0.0000
    114 C          92.0014  133.7671   72.2320 C.3      16      M_A    0.0000
    115 O          92.9296  133.8075   71.1490 O.3      16      M_A    0.0000
    116 H          92.9961  132.1454   73.2499 H        16      M_A    0.0000
    117 H          93.5535  133.7306   73.7419 H        16      M_A    0.0000
    118 H          91.5694  134.7578   72.4345 H        16      M_A    0.0000
    119 H          91.1701  133.1315   71.9013 H        16      M_A    0.0000
    120 C          92.6650  134.8786   70.2698 C.3      17      M_A    0.0000
    121 C          91.6479  134.4955   69.1992 C.3      17      M_A    0.0000
    122 O          91.6020  135.4902   68.1774 O.3      17      M_A    0.0000
    123 H          93.5997  135.1977   69.7933 H        17      M_A    0.0000
    124 H          92.3080  135.7421   70.8424 H        17      M_A    0.0000
    125 H          90.6526  134.3042   69.6257 H        17      M_A    0.0000
    126 H          91.9556  133.5636   68.7079 H        17      M_A    0.0000
    127 C          90.3590  135.5010   67.5100 C.3      18      M_A    0.0000
    128 C          89.8292  134.0899   67.2749 C.3      18      M_A    0.0000
    129 O          88.5986  134.1337   66.5542 O.3      18      M_A    0.0000
    130 H          90.4661  136.0197   66.5497 H        18      M_A    0.0000
    131 H          89.6374  136.0868   68.0907 H        18      M_A    0.0000
    132 H          89.7312  133.5246   68.2130 H        18      M_A    0.0000
    133 H          90.5326  133.5262   66.6489 H        18      M_A    0.0000
    134 C          87.8062  132.9921   66.7974 C.3      19      M_A    0.0000
    135 C          87.0265  132.5681   65.5566 C.3      19      M_A    0.0000
    136 O          86.0455  131.5890   65.8955 O.3      19      M_A    0.0000
    137 H          87.1090  133.2010   67.6177 H        19      M_A    0.0000
    138 H          88.4441  132.1716   67.1451 H        19      M_A    0.0000
    139 H          87.6898  132.2179   64.7525 H        19      M_A    0.0000
    140 H          86.4770  133.4263   65.1492 H        19      M_A    0.0000
    141 C          86.1144  130.4616   65.0502 C.3      20      M_A    0.0000
    142 C          84.9452  130.4142   64.0714 C.3      20      M_A    0.0000
    143 O          84.7781  129.0931   63.5589 O.3      20      M_A    0.0000
    144 H          86.1226  129.5498   65.6596 H        20      M_A    0.0000
    145 H          87.0659  130.4698   64.5066 H        20      M_A    0.0000
    146 H          85.0531  131.1530   63.2642 H        20      M_A    0.0000
    147 H          84.0117  130.6626   64.5922 H        20      M_A    0.0000
    148 C          85.5967  128.8585   62.4341 C.3      21      M_A    0.0000
    149 C          86.8999  129.6482   62.5063 C.3      21      M_A    0.0000
    150 O          87.5775  129.6068   61.2513 O.3      21      M_A    0.0000
    151 H          85.0503  129.1309   61.5231 H        21      M_A    0.0000
    152 H          85.8056  127.7858   62.3513 H        21      M_A    0.0000
    153 H          87.5449  129.3051   63.3282 H        21      M_A    0.0000
    154 H          86.6854  130.7058   62.7055 H        21      M_A    0.0000
    155 C          87.0410  130.5342   60.3336 C.3      22      M_A    0.0000
    156 C          88.1305  131.2041   59.5019 C.3      22      M_A    0.0000
    157 O          88.1488  132.6100   59.7451 O.3      22      M_A    0.0000
    158 H          86.4710  131.2968   60.8779 H        22      M_A    0.0000
    159 H          86.3210  130.0279   59.6808 H        22      M_A    0.0000
    160 H          88.0291  130.9780   58.4306 H        22      M_A    0.0000
    161 H          89.1159  130.8267   59.8034 H        22      M_A    0.0000
    162 C          88.5162  133.3377   58.5936 C.3      23      M_A    0.0000
    163 C          89.6244  134.3439   58.8882 C.3      23      M_A    0.0000
    164 O          89.1279  135.6772   58.7803 O.3      23      M_A    0.0000
    165 H          87.6375  133.8617   58.1986 H        23      M_A    0.0000
    166 H          88.8320  132.6427   57.8073 H        23      M_A    0.0000
    167 H          90.5057  134.1852   58.2500 H        23      M_A    0.0000
    168 H          89.9699  134.2269   59.9232 H        23      M_A    0.0000
    169 C          89.8638  136.5782   59.5784 C.3      24      M_A    0.0000
    170 C          90.1114  137.9007   58.8595 C.3      24      M_A    0.0000
    171 O          91.2337  138.5739   59.4280 O.3      24      M_A    0.0000
    172 H          90.8227  136.1221   59.8525 H        24      M_A    0.0000
    173 H          89.3314  136.7508   60.5206 H        24      M_A    0.0000
    174 H          89.2161  138.5390   58.8503 H        24      M_A    0.0000
    175 H          90.3652  137.7129   57.8084 H        24      M_A    0.0000
    176 C          90.8427  139.6912   60.1956 C.3      25      M_A    0.0000
    177 C          90.2134  140.7802   59.3324 C.3      25      M_A    0.0000
    178 O          90.2398  142.0333   60.0142 O.3      25      M_A    0.0000
    179 H          91.7164  140.0956   60.7208 H        25      M_A    0.0000
    180 H          90.1427  139.3717   60.9759 H        25      M_A    0.0000
    181 H          89.1964  140.5142   59.0096 H        25      M_A    0.0000
    182 H          90.8007  140.9163   58.4154 H        25      M_A    0.0000
    183 C          89.0273  142.2907   60.6880 C.3      26      M_A    0.0000
    184 C          88.6066  141.1169   61.5669 C.3      26      M_A    0.0000
    185 O          87.2675  141.2939   62.0267 O.3      26      M_A    0.0000
    186 H          88.2407  142.5024   59.9538 H        26      M_A    0.0000
    187 H          89.1300  143.2001   61.2909 H        26      M_A    0.0000
    188 H          89.3049  140.9550   62.4008 H        26      M_A    0.0000
    189 H          88.6103  140.1900   60.9792 H        26      M_A    0.0000
    190 H          87.2265  141.8710   62.8177 H        26      M_A    0.0000
    191 H          54.9876  142.0147   98.1443 H         0      M_A    0.0000
@<TRIPOS>BOND
     1     1     2      1
     2     1     4      1
     3     1     5      1
     4     1   191      1
     5     2     3      1
     6     2     6      1
     7     2     7      1
     8     3     8      1
     9     8     9      1
    10     8    11      1
    11     8    12      1
    12     9    10      1
    13     9    13      1
    14     9    14      1
    15    10    15      1
    16    15    16      1
    17    15    18      1
    18    15    19      1
    19    16    17      1
    20    16    20      1
    21    16    21      1
    22    17    22      1
    23    22    23      1
    24    22    25      1
    25    22    26      1
    26    23    24      1
    27    23    27      1
    28    23    28      1
    29    24    29      1
    30    29    30      1
    31    29    32      1
    32    29    33      1
    33    30    31      1
    34    30    34      1
    35    30    35      1
    36    31    36      1
    37    36    37      1
    38    36    39      1
    39    36    40      1
    40    37    38      1
    41    37    41      1
    42    37    42      1
    43    38    43      1
    44    43    44      1
    45    43    46      1
    46    43    47      1
    47    44    45      1
    48    44    48      1
    49    44    49      1
    50    45    50      1
    51    50    51      1
    52    50    53      1
    53    50    54      1
    54    51    52      1
    55    51    55      1
    56    51    56      1
    57    52    57      1
    58    57    58      1
    59    57    60      1
    60    57    61      1
    61    58    59      1
    62    58    62      1
    63    58    63      1
    64    59    64      1
    65    64    65      1
    66    64    67      1
    67    64    68      1
    68    65    66      1
    69    65    69      1
    70    65    70      1
    71    66    71      1
    72    71    72      1
    73    71    74      1
    74    71    75      1
    75    72    73      1
    76    72    76      1
    77    72    77      1
    78    73    78      1
    79    78    79      1
    80    78    81      1
    81    78    82      1
    82    79    80      1
    83    79    83      1
    84    79    84      1
    85    80    85      1
    86    85    86      1
    87    85    88      1
    88    85    89      1
    89    86    87      1
    90    86    90      1
    91    86    91      1
    92    87    92      1
    93    92    93      1
    94    92    95      1
    95    92    96      1
    96    93    94      1
    97    93    97      1
    98    93    98      1
    99    94    99      1
   100    99   100      1
   101    99   102      1
   102    99   103      1
   103   100   101      1
   104   100   104      1
   105   100   105      1
   106   101   106      1
   107   106   107      1
   108   106   109      1
   109   106   110      1
   110   107   108      1
   111   107   111      1
   112   107   112      1
   113   108   113      1
   114   113   114      1
   115   113   116      1
   116   113   117      1
   117   114   115      1
   118   114   118      1
   119   114   119      1
   120   115   120      1
   121   120   121      1
   122   120   123      1
   123   120   124      1
   124   121   122      1
   125   121   125      1
   126   121   126      1
   127   122   127      1
   128   127   128      1
   129   127   130      1
   130   127   131      1
   131   128   129      1
   132   128   132      1
   133   128   133      1
   134   129   134      1
   135   134   135      1
   136   134   137      1
   137   134   138      1
   138   135   136      1
   139   135   139      1
   140   135   140      1
   141   136   141      1
   142   141   142      1
   143   141   144      1
   144   141   145      1
   145   142   143      1
   146   142   146      1
   147   142   147      1
   148   143   148      1
   149   148   149      1
   150   148   151      1
   151   148   152      1
   152   149   150      1
   153   149   153      1
   154   149   154      1
   155   150   155      1
   156   155   156      1
   157   155   158      1
   158   155   159      1
   159   156   157      1
   160   156   160      1
   161   156   161      1
   162   157   162      1
   163   162   163      1
   164   162   165      1
   165   162   166      1
   166   163   164      1
   167   163   167      1
   168   163   168      1
   169   164   169      1
   170   169   170      1
   171   169   172      1
   172   169   173      1
   173   170   171      1
   174   170   174      1
   175   170   175      1
   176   171   176      1
   177   176   177      1
   178   176   179      1
   179   176   180      1
   180   177   178      1
   181   177   181      1
   182   177   182      1
   183   178   183      1
   184   183   184      1
   185   183   186      1
   186   183   187      1
   187   184   185      1
   188   184   188      1
   189   184   189      1
   190   185   190      1
