###
### Created by PolyChef-cpp17 on Mon May 12 10:39:11 2025
###

@<TRIPOS>MOLECULE
NO_INFO
1017 1016 1 0 0
SMALL
USER_CHARGES


@<TRIPOS>ATOM
      1 C         120.4269  104.1925   34.2682 C.3       0      M_A    0.0000
      2 C         120.7529  105.0095   35.5149 C.3       0      M_A    0.0000
      3 O         120.7682  106.4039   35.2097 O.3       0      M_A    0.0000
      4 H         120.5913  104.7783   33.3575 H         0      M_A    0.0000
      5 H         119.3677  103.9120   34.2951 H         0      M_A    0.0000
      6 H         121.7436  104.7483   35.9075 H         0      M_A    0.0000
      7 H         120.0341  104.7832   36.3156 H         0      M_A    0.0000
      8 C         119.6183  106.7869   34.4830 C.3       1      M_A    0.0000
      9 C         119.5367  108.2985   34.2923 C.3       1      M_A    0.0000
     10 O         118.7705  108.6157   33.1303 O.3       1      M_A    0.0000
     11 H         119.6145  106.2661   33.5195 H         1      M_A    0.0000
     12 H         118.7382  106.4523   35.0440 H         1      M_A    0.0000
     13 H         120.5356  108.7314   34.1553 H         1      M_A    0.0000
     14 H         119.1155  108.7722   35.1906 H         1      M_A    0.0000
     15 C         117.7102  109.4988   33.4351 C.3       2      M_A    0.0000
     16 C         116.9220  109.9003   32.1919 C.3       2      M_A    0.0000
     17 O         115.5451  109.5534   32.3386 O.3       2      M_A    0.0000
     18 H         117.0595  109.0316   34.1819 H         2      M_A    0.0000
     19 H         118.1412  110.3992   33.8878 H         2      M_A    0.0000
     20 H         117.2991  109.3796   31.3028 H         2      M_A    0.0000
     21 H         117.0448  110.9752   31.9954 H         2      M_A    0.0000
     22 C         114.8319  109.7462   31.1340 C.3       3      M_A    0.0000
     23 C         113.6584  108.7802   31.0007 C.3       3      M_A    0.0000
     24 O         112.4680  109.4846   30.6474 O.3       3      M_A    0.0000
     25 H         114.4953  110.7870   31.0806 H         3      M_A    0.0000
     26 H         115.5251  109.5789   30.3016 H         3      M_A    0.0000
     27 H         113.4652  108.2638   31.9493 H         3      M_A    0.0000
     28 H         113.8929  107.9973   30.2652 H         3      M_A    0.0000
     29 C         111.6817  108.7461   29.7346 C.3       4      M_A    0.0000
     30 C         110.2504  108.5599   30.2295 C.3       4      M_A    0.0000
     31 O         109.3183  108.8742   29.1950 O.3       4      M_A    0.0000
     32 H         111.7011  109.2459   28.7603 H         4      M_A    0.0000
     33 H         112.1451  107.7607   29.6109 H         4      M_A    0.0000
     34 H         110.0381  109.2246   31.0761 H         4      M_A    0.0000
     35 H         110.1070  107.5342   30.5987 H         4      M_A    0.0000
     36 C         109.6439  108.2159   27.9877 C.3       5      M_A    0.0000
     37 C         108.5009  107.3387   27.4857 C.3       5      M_A    0.0000
     38 O         107.9855  107.8445   26.2542 O.3       5      M_A    0.0000
     39 H         109.9274  108.9629   27.2386 H         5      M_A    0.0000
     40 H         110.5201  107.5843   28.1740 H         5      M_A    0.0000
     41 H         107.6733  107.3220   28.2059 H         5      M_A    0.0000
     42 H         108.8394  106.2979   27.3801 H         5      M_A    0.0000
     43 C         107.3755  106.8238   25.4907 C.3       6      M_A    0.0000
     44 C         107.7552  106.9057   24.0152 C.3       6      M_A    0.0000
     45 O         108.2461  105.6470   23.5541 O.3       6      M_A    0.0000
     46 H         107.6450  105.8507   25.9149 H         6      M_A    0.0000
     47 H         106.2893  106.9366   25.5841 H         6      M_A    0.0000
     48 H         108.5484  107.6465   23.8545 H         6      M_A    0.0000
     49 H         106.8940  107.2415   23.4197 H         6      M_A    0.0000
     50 C         108.2854  105.5928   22.1426 C.3       7      M_A    0.0000
     51 C         109.6120  105.0439   21.6259 C.3       7      M_A    0.0000
     52 O         109.4156  104.3238   20.4090 O.3       7      M_A    0.0000
     53 H         107.4426  104.9920   21.7844 H         7      M_A    0.0000
     54 H         108.1512  106.6119   21.7623 H         7      M_A    0.0000
     55 H         110.0585  104.3505   22.3495 H         7      M_A    0.0000
     56 H         110.3355  105.8613   21.4945 H         7      M_A    0.0000
     57 C         108.3599  104.8735   19.6473 C.3       8      M_A    0.0000
     58 C         108.8056  105.2530   18.2382 C.3       8      M_A    0.0000
     59 O         108.4083  104.2522   17.3010 O.3       8      M_A    0.0000
     60 H         107.5294  104.1599   19.6205 H         8      M_A    0.0000
     61 H         108.0065  105.7742   20.1620 H         8      M_A    0.0000
     62 H         109.8979  105.3404   18.1822 H         8      M_A    0.0000
     63 H         108.4026  106.2389   17.9653 H         8      M_A    0.0000
     64 C         109.4212  104.0058   16.3469 C.3       9      M_A    0.0000
     65 C         109.3064  102.6130   15.7345 C.3       9      M_A    0.0000
     66 O         109.7933  102.6146   14.3926 O.3       9      M_A    0.0000
     67 H         109.3813  104.7816   15.5749 H         9      M_A    0.0000
     68 H         110.3893  104.0917   16.8534 H         9      M_A    0.0000
     69 H         108.2607  102.2824   15.7041 H         9      M_A    0.0000
     70 H         109.8439  101.8805   16.3539 H         9      M_A    0.0000
     71 C         110.3633  101.3684   14.0476 C.3      10      M_A    0.0000
     72 C         109.5106  100.1958   14.5229 C.3      10      M_A    0.0000
     73 O         109.5805   99.1162   13.5915 O.3      10      M_A    0.0000
     74 H         110.5153  101.3329   12.9636 H        10      M_A    0.0000
     75 H         111.3490  101.3056   14.5228 H        10      M_A    0.0000
     76 H         108.4563  100.4869   14.6098 H        10      M_A    0.0000
     77 H         109.8272   99.8788   15.5270 H        10      M_A    0.0000
     78 C         110.7482   98.3435   13.7820 C.3      11      M_A    0.0000
     79 C         110.6996   97.0294   13.0082 C.3      11      M_A    0.0000
     80 O         111.9601   96.7641   12.3928 O.3      11      M_A    0.0000
     81 H         111.6215   98.9390   13.4954 H        11      M_A    0.0000
     82 H         110.8347   98.1219   14.8520 H        11      M_A    0.0000
     83 H         109.9471   97.0708   12.2109 H        11      M_A    0.0000
     84 H         110.3989   96.2077   13.6741 H        11      M_A    0.0000
     85 C         112.4256   95.4670   12.7057 C.3      12      M_A    0.0000
     86 C         113.5643   95.0292   11.7893 C.3      12      M_A    0.0000
     87 O         114.8224   95.1816   12.4465 O.3      12      M_A    0.0000
     88 H         112.7319   95.4412   13.7569 H        12      M_A    0.0000
     89 H         111.5876   94.7706   12.5874 H        12      M_A    0.0000
     90 H         113.5930   95.6409   10.8790 H        12      M_A    0.0000
     91 H         113.4086   93.9919   11.4595 H        12      M_A    0.0000
     92 C         115.7132   94.1387   12.1066 C.3      13      M_A    0.0000
     93 C         116.8026   94.6046   11.1452 C.3      13      M_A    0.0000
     94 O         118.0927   94.2403   11.6361 O.3      13      M_A    0.0000
     95 H         116.1459   93.7251   13.0238 H        13      M_A    0.0000
     96 H         115.1328   93.3429   11.6259 H        13      M_A    0.0000
     97 H         116.7891   95.6963   11.0359 H        13      M_A    0.0000
     98 H         116.6253   94.1916   10.1418 H        13      M_A    0.0000
     99 C         118.8588   93.5890   10.6433 C.3      14      M_A    0.0000
    100 C         120.3283   93.4718   11.0370 C.3      14      M_A    0.0000
    101 O         120.7014   92.1010   11.1761 O.3      14      M_A    0.0000
    102 H         118.4231   92.6041   10.4445 H        14      M_A    0.0000
    103 H         118.7847   94.1765    9.7210 H        14      M_A    0.0000
    104 H         120.5172   93.9630   11.9998 H        14      M_A    0.0000
    105 H         120.9611   93.9856   10.2990 H        14      M_A    0.0000
    106 C         122.0333   91.8824   10.7576 C.3      15      M_A    0.0000
    107 C         122.8950   91.2916   11.8696 C.3      15      M_A    0.0000
    108 O         123.4220   90.0249   11.4750 O.3      15      M_A    0.0000
    109 H         122.0286   91.2345    9.8746 H        15      M_A    0.0000
    110 H         122.4551   92.8485   10.4575 H        15      M_A    0.0000
    111 H         122.3050   91.1325   12.7809 H        15      M_A    0.0000
    112 H         123.6981   91.9921   12.1402 H        15      M_A    0.0000
    113 C         124.4455   89.5955   12.3496 C.3      16      M_A    0.0000
    114 C         124.5625   88.0748   12.3936 C.3      16      M_A    0.0000
    115 O         125.7126   87.6401   11.6683 O.3      16      M_A    0.0000
    116 H         125.3916   90.0561   12.0459 H        16      M_A    0.0000
    117 H         124.2060   89.9619   13.3544 H        16      M_A    0.0000
    118 H         123.6861   87.6002   11.9349 H        16      M_A    0.0000
    119 H         124.5920   87.7265   13.4361 H        16      M_A    0.0000
    120 C         125.6771   86.2479   11.4284 C.3      17      M_A    0.0000
    121 C         124.3819   85.8155   10.7476 C.3      17      M_A    0.0000
    122 O         124.6630   85.0157    9.5991 O.3      17      M_A    0.0000
    123 H         126.5508   85.9658   10.8312 H        17      M_A    0.0000
    124 H         125.7573   85.7373   12.3948 H        17      M_A    0.0000
    125 H         123.8068   86.6863   10.4088 H        17      M_A    0.0000
    126 H         123.7391   85.2794   11.4606 H        17      M_A    0.0000
    127 C         123.5228   84.8730    8.7765 C.3      18      M_A    0.0000
    128 C         123.7363   83.8408    7.6733 C.3      18      M_A    0.0000
    129 O         122.8295   82.7491    7.8270 O.3      18      M_A    0.0000
    130 H         122.6620   84.6116    9.4012 H        18      M_A    0.0000
    131 H         123.3152   85.8459    8.3165 H        18      M_A    0.0000
    132 H         124.7533   83.4308    7.7107 H        18      M_A    0.0000
    133 H         123.6300   84.3130    6.6861 H        18      M_A    0.0000
    134 C         122.6521   82.0491    6.6123 C.3      19      M_A    0.0000
    135 C         123.1394   80.6061    6.7048 C.3      19      M_A    0.0000
    136 O         122.0539   79.6983    6.5164 O.3      19      M_A    0.0000
    137 H         121.5958   82.0921    6.3261 H        19      M_A    0.0000
    138 H         123.2270   82.5685    5.8370 H        19      M_A    0.0000
    139 H         123.5722   80.4004    7.6917 H        19      M_A    0.0000
    140 H         123.9407   80.4286    5.9731 H        19      M_A    0.0000
    141 C         122.4736   78.5193    5.8602 C.3      20      M_A    0.0000
    142 C         122.6783   77.3623    6.8336 C.3      20      M_A    0.0000
    143 O         122.0302   76.1842    6.3540 O.3      20      M_A    0.0000
    144 H         121.7421   78.2609    5.0871 H        20      M_A    0.0000
    145 H         123.4244   78.7331    5.3586 H        20      M_A    0.0000
    146 H         122.2502   77.5957    7.8164 H        20      M_A    0.0000
    147 H         123.7517   77.1896    6.9975 H        20      M_A    0.0000
    148 C         122.1495   76.0629    4.9511 C.3      21      M_A    0.0000
    149 C         122.8008   74.7450    4.5422 C.3      21      M_A    0.0000
    150 O         121.8563   73.6768    4.6131 O.3      21      M_A    0.0000
    151 H         121.1587   76.1717    4.4975 H        21      M_A    0.0000
    152 H         122.7710   76.8916    4.5929 H        21      M_A    0.0000
    153 H         123.6322   74.4933    5.2123 H        21      M_A    0.0000
    154 H         123.2318   74.8313    3.5344 H        21      M_A    0.0000
    155 C         122.3095   72.5382    3.9096 C.3      22      M_A    0.0000
    156 C         123.1662   71.6268    4.7834 C.3      22      M_A    0.0000
    157 O         122.4422   70.4489    5.1386 O.3      22      M_A    0.0000
    158 H         121.4452   72.0003    3.5057 H        22      M_A    0.0000
    159 H         122.9110   72.8836    3.0611 H        22      M_A    0.0000
    160 H         123.4511   72.1308    5.7154 H        22      M_A    0.0000
    161 H         124.1048   71.3788    4.2672 H        22      M_A    0.0000
    162 C         123.3124   69.3991    5.5097 C.3      23      M_A    0.0000
    163 C         122.8264   68.6636    6.7551 C.3      23      M_A    0.0000
    164 O         122.9765   67.2531    6.5938 O.3      23      M_A    0.0000
    165 H         123.4251   68.7125    4.6639 H        23      M_A    0.0000
    166 H         124.2967   69.8345    5.7166 H        23      M_A    0.0000
    167 H         121.7629   68.8619    6.9382 H        23      M_A    0.0000
    168 H         123.3650   69.0241    7.6432 H        23      M_A    0.0000
    169 C         124.1522   66.9368    5.8764 C.3      24      M_A    0.0000
    170 C         125.3073   66.5663    6.8018 C.3      24      M_A    0.0000
    171 O         126.1020   65.5324    6.2210 O.3      24      M_A    0.0000
    172 H         123.9341   66.1266    5.1724 H        24      M_A    0.0000
    173 H         124.4363   67.8180    5.2898 H        24      M_A    0.0000
    174 H         124.9353   66.1933    7.7642 H        24      M_A    0.0000
    175 H         125.9123   67.4560    7.0285 H        24      M_A    0.0000
    176 C         126.2601   65.7214    4.8296 C.3      25      M_A    0.0000
    177 C         127.6859   65.4326    4.3693 C.3      25      M_A    0.0000
    178 O         127.8872   64.0278    4.2150 O.3      25      M_A    0.0000
    179 H         125.5383   65.0913    4.2991 H        25      M_A    0.0000
    180 H         126.0188   66.7659    4.6018 H        25      M_A    0.0000
    181 H         128.4163   65.7901    5.1059 H        25      M_A    0.0000
    182 H         127.8999   65.9721    3.4354 H        25      M_A    0.0000
    183 C         129.0475   63.7516    3.4571 C.3      26      M_A    0.0000
    184 C         130.2370   63.3871    4.3405 C.3      26      M_A    0.0000
    185 O         130.1802   62.0103    4.7132 O.3      26      M_A    0.0000
    186 H         128.8257   62.9516    2.7428 H        26      M_A    0.0000
    187 H         129.2957   64.6506    2.8814 H        26      M_A    0.0000
    188 H         130.2352   63.9780    5.2649 H        26      M_A    0.0000
    189 H         131.1790   63.6233    3.8249 H        26      M_A    0.0000
    190 C         131.4319   61.5485    5.1790 C.3      27      M_A    0.0000
    191 C         131.3457   60.9858    6.5946 C.3      27      M_A    0.0000
    192 O         130.8268   59.6560    6.5738 O.3      27      M_A    0.0000
    193 H         131.8198   60.8006    4.4792 H        27      M_A    0.0000
    194 H         132.1262   62.3965    5.1762 H        27      M_A    0.0000
    195 H         130.6747   61.5906    7.2173 H        27      M_A    0.0000
    196 H         132.3324   61.0224    7.0783 H        27      M_A    0.0000
    197 C         130.6059   59.2076    5.2521 C.3      28      M_A    0.0000
    198 C         129.6345   58.0321    5.1994 C.3      28      M_A    0.0000
    199 O         128.2862   58.4928    5.2873 O.3      28      M_A    0.0000
    200 H         130.2456   60.0456    4.6459 H        28      M_A    0.0000
    201 H         131.5699   58.8897    4.8386 H        28      M_A    0.0000
    202 H         129.8026   57.3460    6.0390 H        28      M_A    0.0000
    203 H         129.7978   57.4456    4.2839 H        28      M_A    0.0000
    204 C         127.5683   57.8029    6.2901 C.3      29      M_A    0.0000
    205 C         128.0901   58.1172    7.6890 C.3      29      M_A    0.0000
    206 O         127.1204   57.7651    8.6757 O.3      29      M_A    0.0000
    207 H         126.5046   58.0480    6.2006 H        29      M_A    0.0000
    208 H         127.6776   56.7283    6.1040 H        29      M_A    0.0000
    209 H         128.2967   59.1891    7.7993 H        29      M_A    0.0000
    210 H         129.0443   57.5993    7.8633 H        29      M_A    0.0000
    211 C         126.7469   56.4062    8.5719 C.3      30      M_A    0.0000
    212 C         127.4507   55.5364    9.6093 C.3      30      M_A    0.0000
    213 O         126.5210   55.0751   10.5895 O.3      30      M_A    0.0000
    214 H         125.6583   56.3269    8.6626 H        30      M_A    0.0000
    215 H         127.0224   56.0565    7.5704 H        30      M_A    0.0000
    216 H         128.2280   56.1044   10.1356 H        30      M_A    0.0000
    217 H         127.9619   54.6968    9.1167 H        30      M_A    0.0000
    218 C         127.0539   54.0070   11.3457 C.3      31      M_A    0.0000
    219 C         125.9626   53.1010   11.9080 C.3      31      M_A    0.0000
    220 O         126.3390   51.7293   11.7865 O.3      31      M_A    0.0000
    221 H         127.7542   53.4418   10.7215 H        31      M_A    0.0000
    222 H         127.6235   54.4350   12.1786 H        31      M_A    0.0000
    223 H         125.0215   53.2332   11.3597 H        31      M_A    0.0000
    224 H         125.7505   53.3663   12.9537 H        31      M_A    0.0000
    225 C         127.5827   51.4773   12.4083 C.3      32      M_A    0.0000
    226 C         127.7110   50.0284   12.8692 C.3      32      M_A    0.0000
    227 O         129.0825   49.6865   13.0693 O.3      32      M_A    0.0000
    228 H         128.3887   51.7450   11.7167 H        32      M_A    0.0000
    229 H         127.6626   52.1354   13.2811 H        32      M_A    0.0000
    230 H         127.3072   49.3398   12.1165 H        32      M_A    0.0000
    231 H         127.1212   49.8672   13.7830 H        32      M_A    0.0000
    232 C         129.2163   48.5460   13.8928 C.3      33      M_A    0.0000
    233 C         128.3316   47.3938   13.4261 C.3      33      M_A    0.0000
    234 O         128.8284   46.1497   13.9195 O.3      33      M_A    0.0000
    235 H         130.2699   48.2484   13.9227 H        33      M_A    0.0000
    236 H         128.9228   48.8287   14.9103 H        33      M_A    0.0000
    237 H         128.3154   47.3299   12.3310 H        33      M_A    0.0000
    238 H         127.2916   47.5622   13.7410 H        33      M_A    0.0000
    239 C         127.8572   45.1282   13.8183 C.3      34      M_A    0.0000
    240 C         128.4890   43.7426   13.7248 C.3      34      M_A    0.0000
    241 O         128.7267   43.2118   15.0285 O.3      34      M_A    0.0000
    242 H         127.1771   45.1956   14.6742 H        34      M_A    0.0000
    243 H         127.2686   45.3115   12.9121 H        34      M_A    0.0000
    244 H         129.4552   43.7858   13.2066 H        34      M_A    0.0000
    245 H         127.8499   43.0733   13.1310 H        34      M_A    0.0000
    246 C         128.5965   41.8048   15.0457 C.3      35      M_A    0.0000
    247 C         129.8366   41.1067   14.4952 C.3      35      M_A    0.0000
    248 O         130.8842   41.1091   15.4649 O.3      35      M_A    0.0000
    249 H         128.3805   41.4784   16.0686 H        35      M_A    0.0000
    250 H         127.7342   41.5385   14.4238 H        35      M_A    0.0000
    251 H         130.2136   41.6220   13.6030 H        35      M_A    0.0000
    252 H         129.5871   40.0837   14.1786 H        35      M_A    0.0000
    253 C         131.8766   40.1515   15.1565 C.3      36      M_A    0.0000
    254 C         133.2575   40.7832   15.0076 C.3      36      M_A    0.0000
    255 O         134.1899   40.1623   15.8924 O.3      36      M_A    0.0000
    256 H         131.8779   39.3763   15.9302 H        36      M_A    0.0000
    257 H         131.6012   39.6739   14.2092 H        36      M_A    0.0000
    258 H         133.2295   41.8514   15.2567 H        36      M_A    0.0000
    259 H         133.5937   40.7186   13.9627 H        36      M_A    0.0000
    260 C         135.4955   40.1629   15.3515 C.3      37      M_A    0.0000
    261 C         136.5669   40.1471   16.4377 C.3      37      M_A    0.0000
    262 O         137.3794   38.9790   16.3222 O.3      37      M_A    0.0000
    263 H         135.6033   39.3066   14.6773 H        37      M_A    0.0000
    264 H         135.6115   41.0733   14.7522 H        37      M_A    0.0000
    265 H         136.1132   40.1342   17.4365 H        37      M_A    0.0000
    266 H         137.1734   41.0627   16.3859 H        37      M_A    0.0000
    267 C         138.6268   39.1512   16.9634 C.3      38      M_A    0.0000
    268 C         139.4809   37.8880   16.9064 C.3      38      M_A    0.0000
    269 O         140.8505   38.2198   16.6786 O.3      38      M_A    0.0000
    270 H         139.1476   40.0012   16.5096 H        38      M_A    0.0000
    271 H         138.4346   39.4021   18.0128 H        38      M_A    0.0000
    272 H         139.1603   37.2341   16.0857 H        38      M_A    0.0000
    273 H         139.3589   37.3055   17.8309 H        38      M_A    0.0000
    274 C         141.4482   38.7714   17.8342 C.3      39      M_A    0.0000
    275 C         142.5433   37.8717   18.3993 C.3      39      M_A    0.0000
    276 O         143.6993   37.9044   17.5624 O.3      39      M_A    0.0000
    277 H         141.8384   39.7662   17.5945 H        39      M_A    0.0000
    278 H         140.6657   38.8959   18.5915 H        39      M_A    0.0000
    279 H         142.2060   36.8290   18.4530 H        39      M_A    0.0000
    280 H         142.7865   38.1709   19.4290 H        39      M_A    0.0000
    281 C         144.4391   36.7039   17.6550 C.3      40      M_A    0.0000
    282 C         145.8901   36.8887   17.2208 C.3      40      M_A    0.0000
    283 O         146.7520   36.0431   17.9824 O.3      40      M_A    0.0000
    284 H         144.3786   36.3252   18.6809 H        40      M_A    0.0000
    285 H         143.9644   35.9642   17.0001 H        40      M_A    0.0000
    286 H         146.2191   37.9230   17.3810 H        40      M_A    0.0000
    287 H         145.9911   36.6960   16.1430 H        40      M_A    0.0000
    288 C         148.0692   36.0520   17.4709 C.3      41      M_A    0.0000
    289 C         148.8859   34.8626   17.9675 C.3      41      M_A    0.0000
    290 O         149.8588   34.4824   16.9945 O.3      41      M_A    0.0000
    291 H         148.0276   36.0736   16.3767 H        41      M_A    0.0000
    292 H         148.5533   36.9777   17.8025 H        41      M_A    0.0000
    293 H         148.2427   33.9921   18.1466 H        41      M_A    0.0000
    294 H         149.3571   35.1020   18.9318 H        41      M_A    0.0000
    295 C         151.0336   33.9869   17.6039 C.3      42      M_A    0.0000
    296 C         151.1149   32.4645   17.5407 C.3      42      M_A    0.0000
    297 O         152.4719   32.0315   17.6341 O.3      42      M_A    0.0000
    298 H         151.9051   34.4493   17.1286 H        42      M_A    0.0000
    299 H         151.0251   34.2981   18.6548 H        42      M_A    0.0000
    300 H         150.7149   32.0891   16.5905 H        42      M_A    0.0000
    301 H         150.4973   32.0182   18.3334 H        42      M_A    0.0000
    302 C         152.6095   30.6764   17.2576 C.3      43      M_A    0.0000
    303 C         153.0942   29.8059   18.4132 C.3      43      M_A    0.0000
    304 O         152.0358   28.9771   18.8936 O.3      43      M_A    0.0000
    305 H         151.6528   30.3157   16.8652 H        43      M_A    0.0000
    306 H         153.3420   30.6255   16.4438 H        43      M_A    0.0000
    307 H         153.4353   30.4233   19.2536 H        43      M_A    0.0000
    308 H         153.9606   29.2061   18.0991 H        43      M_A    0.0000
    309 C         152.5304   27.9035   19.6679 C.3      44      M_A    0.0000
    310 C         152.1730   28.0480   21.1443 C.3      44      M_A    0.0000
    311 O         151.2974   26.9970   21.5524 O.3      44      M_A    0.0000
    312 H         152.1481   26.9621   19.2590 H        44      M_A    0.0000
    313 H         153.6217   27.8899   19.5670 H        44      M_A    0.0000
    314 H         151.6563   28.9975   21.3320 H        44      M_A    0.0000
    315 H         153.0866   28.0675   21.7557 H        44      M_A    0.0000
    316 C         150.0105   27.1475   20.9883 C.3      45      M_A    0.0000
    317 C         148.9712   26.2773   21.6888 C.3      45      M_A    0.0000
    318 O         148.5743   26.8694   22.9256 O.3      45      M_A    0.0000
    319 H         149.7275   28.2050   21.0210 H        45      M_A    0.0000
    320 H         150.0680   26.8522   19.9343 H        45      M_A    0.0000
    321 H         149.3792   25.2845   21.9158 H        45      M_A    0.0000
    322 H         148.1073   26.1126   21.0289 H        45      M_A    0.0000
    323 C         149.4427   26.5007   23.9777 C.3      46      M_A    0.0000
    324 C         148.9635   27.0251   25.3281 C.3      46      M_A    0.0000
    325 O         149.5416   26.2692   26.3922 O.3      46      M_A    0.0000
    326 H         149.5453   25.4104   23.9908 H        46      M_A    0.0000
    327 H         150.4306   26.9241   23.7632 H        46      M_A    0.0000
    328 H         147.8735   26.9389   25.4183 H        46      M_A    0.0000
    329 H         149.1977   28.0950   25.4245 H        46      M_A    0.0000
    330 C         148.7537   26.3383   27.5632 C.3      47      M_A    0.0000
    331 C         149.5826   26.6989   28.7924 C.3      47      M_A    0.0000
    332 O         149.3560   28.0574   29.1680 O.3      47      M_A    0.0000
    333 H         147.9440   27.0591   27.4071 H        47      M_A    0.0000
    334 H         148.2962   25.3548   27.7201 H        47      M_A    0.0000
    335 H         150.6550   26.5889   28.5888 H        47      M_A    0.0000
    336 H         149.3533   26.0118   29.6196 H        47      M_A    0.0000
    337 C         150.3576   28.5245   30.0485 C.3      48      M_A    0.0000
    338 C         149.8010   28.8472   31.4320 C.3      48      M_A    0.0000
    339 O         150.6302   28.2847   32.4488 O.3      48      M_A    0.0000
    340 H         151.1572   27.7785   30.1082 H        48      M_A    0.0000
    341 H         150.7867   29.4364   29.6174 H        48      M_A    0.0000
    342 H         148.7954   28.4269   31.5584 H        48      M_A    0.0000
    343 H         149.6987   29.9349   31.5558 H        48      M_A    0.0000
    344 C         149.9052   28.0565   33.6400 C.3      49      M_A    0.0000
    345 C         150.8239   27.8107   34.8332 C.3      49      M_A    0.0000
    346 O         150.2326   28.3120   36.0319 O.3      49      M_A    0.0000
    347 H         149.2400   28.9074   33.8220 H        49      M_A    0.0000
    348 H         149.2770   27.1713   33.4879 H        49      M_A    0.0000
    349 H         151.7846   28.3239   34.7012 H        49      M_A    0.0000
    350 H         151.0556   26.7393   34.9193 H        49      M_A    0.0000
    351 C         150.2099   29.7249   36.0457 C.3      50      M_A    0.0000
    352 C         149.4115   30.2748   37.2239 C.3      50      M_A    0.0000
    353 O         150.1697   30.1807   38.4298 O.3      50      M_A    0.0000
    354 H         151.2393   30.0987   36.0569 H        50      M_A    0.0000
    355 H         149.7444   30.0636   35.1130 H        50      M_A    0.0000
    356 H         148.4865   29.7036   37.3721 H        50      M_A    0.0000
    357 H         149.1053   31.3117   37.0240 H        50      M_A    0.0000
    358 C         150.6928   28.8806   38.6117 C.3      51      M_A    0.0000
    359 C         150.5007   28.3792   40.0400 C.3      51      M_A    0.0000
    360 O         151.5150   27.4336   40.3790 O.3      51      M_A    0.0000
    361 H         150.2259   28.2032   37.8888 H        51      M_A    0.0000
    362 H         151.7654   28.9147   38.3892 H        51      M_A    0.0000
    363 H         149.5320   27.8765   40.1526 H        51      M_A    0.0000
    364 H         150.4927   29.2258   40.7415 H        51      M_A    0.0000
    365 C         151.2542   26.8197   41.6248 C.3      52      M_A    0.0000
    366 C         152.3299   27.1391   42.6587 C.3      52      M_A    0.0000
    367 O         151.8298   28.0517   43.6358 O.3      52      M_A    0.0000
    368 H         150.2642   27.1299   41.9757 H        52      M_A    0.0000
    369 H         151.2251   25.7355   41.4667 H        52      M_A    0.0000
    370 H         153.2015   27.6089   42.1860 H        52      M_A    0.0000
    371 H         152.6941   26.2128   43.1260 H        52      M_A    0.0000
    372 C         150.6639   28.7083   43.1814 C.3      53      M_A    0.0000
    373 C         149.6195   28.8528   44.2844 C.3      53      M_A    0.0000
    374 O         149.9133   29.9820   45.1068 O.3      53      M_A    0.0000
    375 H         150.9410   29.6843   42.7691 H        53      M_A    0.0000
    376 H         150.2380   28.1127   42.3657 H        53      M_A    0.0000
    377 H         149.6085   27.9680   44.9330 H        53      M_A    0.0000
    378 H         148.6135   28.9276   43.8470 H        53      M_A    0.0000
    379 C         151.0899   29.7793   45.8627 C.3      54      M_A    0.0000
    380 C         151.1450   30.6811   47.0922 C.3      54      M_A    0.0000
    381 O         151.9732   30.1022   48.1007 O.3      54      M_A    0.0000
    382 H         151.1564   28.7229   46.1439 H        54      M_A    0.0000
    383 H         151.9474   30.0053   45.2185 H        54      M_A    0.0000
    384 H         150.1459   30.8161   47.5252 H        54      M_A    0.0000
    385 H         151.4981   31.6839   46.8118 H        54      M_A    0.0000
    386 C         153.3304   30.0837   47.7077 C.3      55      M_A    0.0000
    387 C         154.1199   31.2395   48.3151 C.3      55      M_A    0.0000
    388 O         155.0140   30.7614   49.3200 O.3      55      M_A    0.0000
    389 H         153.7687   29.1183   47.9820 H        55      M_A    0.0000
    390 H         153.3660   30.1654   46.6153 H        55      M_A    0.0000
    391 H         153.4491   31.9659   48.7908 H        55      M_A    0.0000
    392 H         154.6586   31.7863   47.5278 H        55      M_A    0.0000
    393 C         156.2234   31.4923   49.3264 C.3      56      M_A    0.0000
    394 C         156.4077   32.2858   50.6166 C.3      56      M_A    0.0000
    395 O         157.6691   31.9846   51.2134 O.3      56      M_A    0.0000
    396 H         157.0585   30.8027   49.1637 H        56      M_A    0.0000
    397 H         156.2000   32.1899   48.4814 H        56      M_A    0.0000
    398 H         155.6297   32.0329   51.3476 H        56      M_A    0.0000
    399 H         156.3063   33.3624   50.4177 H        56      M_A    0.0000
    400 C         158.7397   32.4973   50.4467 C.3      57      M_A    0.0000
    401 C         159.5751   33.5060   51.2294 C.3      57      M_A    0.0000
    402 O         160.8268   32.9330   51.6075 O.3      57      M_A    0.0000
    403 H         159.3559   31.6644   50.0917 H        57      M_A    0.0000
    404 H         158.3160   32.9947   49.5667 H        57      M_A    0.0000
    405 H         159.0618   33.8105   52.1501 H        57      M_A    0.0000
    406 H         159.7169   34.4217   50.6377 H        57      M_A    0.0000
    407 C         161.8465   33.9096   51.6644 C.3      58      M_A    0.0000
    408 C         162.8545   33.6232   52.7734 C.3      58      M_A    0.0000
    409 O         164.1371   33.3287   52.2201 O.3      58      M_A    0.0000
    410 H         162.3392   33.9691   50.6880 H        58      M_A    0.0000
    411 H         161.3738   34.8796   51.8567 H        58      M_A    0.0000
    412 H         162.5465   32.7550   53.3692 H        58      M_A    0.0000
    413 H         162.9048   34.4730   53.4693 H        58      M_A    0.0000
    414 C         164.9610   32.6586   53.1524 C.3      59      M_A    0.0000
    415 C         164.2834   31.4200   53.7312 C.3      59      M_A    0.0000
    416 O         165.1406   30.7745   54.6726 O.3      59      M_A    0.0000
    417 H         165.9100   32.4010   52.6701 H        59      M_A    0.0000
    418 H         165.1825   33.3557   53.9686 H        59      M_A    0.0000
    419 H         164.0550   30.6926   52.9423 H        59      M_A    0.0000
    420 H         163.3211   31.6925   54.1880 H        59      M_A    0.0000
    421 C         165.2474   31.5180   55.8696 C.3      60      M_A    0.0000
    422 C         163.9181   31.6017   56.6140 C.3      60      M_A    0.0000
    423 O         164.1340   31.9127   57.9904 O.3      60      M_A    0.0000
    424 H         166.0254   31.0726   56.4988 H        60      M_A    0.0000
    425 H         165.5721   32.5318   55.6087 H        60      M_A    0.0000
    426 H         163.3844   30.6439   56.5734 H        60      M_A    0.0000
    427 H         163.2609   32.3418   56.1351 H        60      M_A    0.0000
    428 C         164.6477   33.2193   58.1510 C.3      61      M_A    0.0000
    429 C         163.9802   33.9608   59.3054 C.3      61      M_A    0.0000
    430 O         164.8741   34.0711   60.4129 O.3      61      M_A    0.0000
    431 H         165.7323   33.1620   58.2924 H        61      M_A    0.0000
    432 H         164.4633   33.7705   57.2217 H        61      M_A    0.0000
    433 H         163.0895   33.4235   59.6544 H        61      M_A    0.0000
    434 H         163.6333   34.9493   58.9715 H        61      M_A    0.0000
    435 C         166.1792   34.4126   59.9922 C.3      62      M_A    0.0000
    436 C         166.8002   35.4958   60.8692 C.3      62      M_A    0.0000
    437 O         167.7880   34.9346   61.7336 O.3      62      M_A    0.0000
    438 H         166.7988   33.5095   59.9811 H        62      M_A    0.0000
    439 H         166.1152   34.7833   58.9627 H        62      M_A    0.0000
    440 H         166.0410   35.9711   61.5028 H        62      M_A    0.0000
    441 H         167.2238   36.2943   60.2432 H        62      M_A    0.0000
    442 C         168.8150   35.8629   62.0169 C.3      63      M_A    0.0000
    443 C         168.2658   37.2577   62.3014 C.3      63      M_A    0.0000
    444 O         168.7766   37.7540   63.5386 O.3      63      M_A    0.0000
    445 H         169.4091   35.4926   62.8592 H        63      M_A    0.0000
    446 H         169.4745   35.9130   61.1428 H        63      M_A    0.0000
    447 H         167.1717   37.2401   62.3811 H        63      M_A    0.0000
    448 H         168.5038   37.9363   61.4696 H        63      M_A    0.0000
    449 C         167.9988   38.8287   64.0254 C.3      64      M_A    0.0000
    450 C         168.7783   39.7060   65.0005 C.3      64      M_A    0.0000
    451 O         169.2515   40.8832   64.3463 O.3      64      M_A    0.0000
    452 H         167.6273   39.4139   63.1774 H        64      M_A    0.0000
    453 H         167.1297   38.4079   64.5439 H        64      M_A    0.0000
    454 H         169.6538   39.1741   65.3935 H        64      M_A    0.0000
    455 H         168.1529   39.9556   65.8698 H        64      M_A    0.0000
    456 C         170.4919   41.3058   64.8752 C.3      65      M_A    0.0000
    457 C         171.1726   42.3415   63.9853 C.3      65      M_A    0.0000
    458 O         171.5991   43.4630   64.7587 O.3      65      M_A    0.0000
    459 H         170.3350   41.6955   65.8866 H        65      M_A    0.0000
    460 H         171.1409   40.4263   64.9559 H        65      M_A    0.0000
    461 H         170.4823   42.7147   63.2185 H        65      M_A    0.0000
    462 H         172.0147   41.8841   63.4462 H        65      M_A    0.0000
    463 C         172.8306   43.2085   65.4033 C.3      66      M_A    0.0000
    464 C         173.9112   44.2035   64.9904 C.3      66      M_A    0.0000
    465 O         173.9038   45.3383   65.8565 O.3      66      M_A    0.0000
    466 H         172.6757   43.2204   66.4874 H        66      M_A    0.0000
    467 H         173.1538   42.1986   65.1257 H        66      M_A    0.0000
    468 H         173.7399   44.5680   63.9699 H        66      M_A    0.0000
    469 H         174.8953   43.7132   64.9821 H        66      M_A    0.0000
    470 C         173.8835   46.5471   65.1250 C.3      67      M_A    0.0000
    471 C         173.8971   47.7703   66.0369 C.3      67      M_A    0.0000
    472 O         175.2207   48.2921   66.1545 O.3      67      M_A    0.0000
    473 H         174.7324   46.5604   64.4331 H        67      M_A    0.0000
    474 H         172.9665   46.5624   64.5248 H        67      M_A    0.0000
    475 H         173.5552   47.5110   67.0466 H        67      M_A    0.0000
    476 H         173.1990   48.5319   65.6606 H        67      M_A    0.0000
    477 C         175.5536   49.1111   65.0521 C.3      68      M_A    0.0000
    478 C         174.7357   50.3989   65.0257 C.3      68      M_A    0.0000
    479 O         175.0764   51.2309   66.1345 O.3      68      M_A    0.0000
    480 H         176.6274   49.3252   65.0775 H        68      M_A    0.0000
    481 H         175.3505   48.5432   64.1370 H        68      M_A    0.0000
    482 H         173.6621   50.1835   65.0943 H        68      M_A    0.0000
    483 H         174.8849   50.9237   64.0712 H        68      M_A    0.0000
    484 C         175.4339   50.4639   67.2662 C.3      69      M_A    0.0000
    485 C         176.9388   50.4782   67.5174 C.3      69      M_A    0.0000
    486 O         177.2124   50.6456   68.9084 O.3      69      M_A    0.0000
    487 H         174.8841   50.8350   68.1377 H        69      M_A    0.0000
    488 H         175.1140   49.4308   67.0878 H        69      M_A    0.0000
    489 H         177.4176   51.3101   66.9860 H        69      M_A    0.0000
    490 H         177.3974   49.5580   67.1276 H        69      M_A    0.0000
    491 C         178.3074   49.8524   69.3193 C.3      70      M_A    0.0000
    492 C         179.0747   50.4875   70.4752 C.3      70      M_A    0.0000
    493 O         179.7571   49.4879   71.2321 O.3      70      M_A    0.0000
    494 H         177.9450   48.8540   69.5866 H        70      M_A    0.0000
    495 H         178.9832   49.7416   68.4636 H        70      M_A    0.0000
    496 H         178.3935   51.0093   71.1589 H        70      M_A    0.0000
    497 H         179.7727   51.2474   70.0953 H        70      M_A    0.0000
    498 C         180.8636   48.9680   70.5234 C.3      71      M_A    0.0000
    499 C         182.1653   49.6723   70.8944 C.3      71      M_A    0.0000
    500 O         182.6671   49.1756   72.1351 O.3      71      M_A    0.0000
    501 H         180.9310   47.8903   70.7067 H        71      M_A    0.0000
    502 H         180.6756   49.1110   69.4531 H        71      M_A    0.0000
    503 H         182.0079   50.7517   71.0122 H        71      M_A    0.0000
    504 H         182.9038   49.5541   70.0883 H        71      M_A    0.0000
    505 C         182.5777   50.1487   73.1559 C.3      72      M_A    0.0000
    506 C         181.9810   49.5804   74.4401 C.3      72      M_A    0.0000
    507 O         182.6770   50.0832   75.5806 O.3      72      M_A    0.0000
    508 H         183.5722   50.5709   73.3351 H        72      M_A    0.0000
    509 H         181.9340   50.9586   72.7940 H        72      M_A    0.0000
    510 H         182.0635   48.4865   74.4609 H        72      M_A    0.0000
    511 H         180.9071   49.8101   74.4937 H        72      M_A    0.0000
    512 C         181.9258   51.0765   76.2485 C.3      73      M_A    0.0000
    513 C         182.4309   51.3213   77.6673 C.3      73      M_A    0.0000
    514 O         183.5405   52.2195   77.6555 O.3      73      M_A    0.0000
    515 H         181.9464   51.9981   75.6570 H        73      M_A    0.0000
    516 H         180.8850   50.7365   76.2964 H        73      M_A    0.0000
    517 H         182.7702   50.3861   78.1300 H        73      M_A    0.0000
    518 H         181.6158   51.7009   78.3001 H        73      M_A    0.0000
    519 C         184.5346   51.8015   76.7424 C.3      74      M_A    0.0000
    520 C         185.8681   52.5023   76.9849 C.3      74      M_A    0.0000
    521 O         186.7870   51.6204   77.6295 O.3      74      M_A    0.0000
    522 H         184.6427   50.7134   76.8051 H        74      M_A    0.0000
    523 H         184.1862   52.0422   75.7314 H        74      M_A    0.0000
    524 H         185.7397   53.3761   77.6358 H        74      M_A    0.0000
    525 H         186.2757   52.8810   76.0365 H        74      M_A    0.0000
    526 C         187.6111   52.3117   78.5460 C.3      75      M_A    0.0000
    527 C         189.0293   52.4984   78.0151 C.3      75      M_A    0.0000
    528 O         189.5245   53.7935   78.3548 O.3      75      M_A    0.0000
    529 H         187.1488   53.2752   78.7859 H        75      M_A    0.0000
    530 H         187.6530   51.7248   79.4707 H        75      M_A    0.0000
    531 H         189.0535   52.4139   76.9215 H        75      M_A    0.0000
    532 H         189.6863   51.7054   78.4006 H        75      M_A    0.0000
    533 C         188.9640   54.2605   79.5650 C.3      76      M_A    0.0000
    534 C         189.9190   55.1771   80.3240 C.3      76      M_A    0.0000
    535 O         189.7710   56.5275   79.8853 O.3      76      M_A    0.0000
    536 H         188.0178   54.7676   79.3484 H        76      M_A    0.0000
    537 H         188.7375   53.3890   80.1899 H        76      M_A    0.0000
    538 H         190.9628   54.8876   80.1496 H        76      M_A    0.0000
    539 H         189.7506   55.0877   81.4068 H        76      M_A    0.0000
    540 C         190.7862   56.8885   78.9710 C.3      77      M_A    0.0000
    541 C         191.6953   57.9817   79.5247 C.3      77      M_A    0.0000
    542 O         193.0627   57.6883   79.2379 O.3      77      M_A    0.0000
    543 H         191.3602   55.9950   78.7032 H        77      M_A    0.0000
    544 H         190.3028   57.2575   78.0592 H        77      M_A    0.0000
    545 H         191.5975   58.0588   80.6148 H        77      M_A    0.0000
    546 H         191.4027   58.9606   79.1185 H        77      M_A    0.0000
    547 C         193.9359   58.4965   80.0002 C.3      78      M_A    0.0000
    548 C         195.3826   58.0193   79.9132 C.3      78      M_A    0.0000
    549 O         196.2144   59.0409   79.3636 O.3      78      M_A    0.0000
    550 H         193.8419   59.5360   79.6681 H        78      M_A    0.0000
    551 H         193.6100   58.4518   81.0457 H        78      M_A    0.0000
    552 H         195.4676   57.1405   79.2618 H        78      M_A    0.0000
    553 H         195.7384   57.7042   80.9047 H        78      M_A    0.0000
    554 C         196.5866   59.9881   80.3440 C.3      79      M_A    0.0000
    555 C         198.1011   60.0870   80.5011 C.3      79      M_A    0.0000
    556 O         198.6226   61.1299   79.6776 O.3      79      M_A    0.0000
    557 H         196.1517   60.9595   80.0857 H        79      M_A    0.0000
    558 H         196.1508   59.6734   81.2991 H        79      M_A    0.0000
    559 H         198.5892   59.1528   80.1966 H        79      M_A    0.0000
    560 H         198.3637   60.2425   81.5574 H        79      M_A    0.0000
    561 C         199.9752   61.4025   79.9829 C.3      80      M_A    0.0000
    562 C         200.7607   61.8553   78.7557 C.3      80      M_A    0.0000
    563 O         201.7002   62.8703   79.1093 O.3      80      M_A    0.0000
    564 H         200.0175   62.1538   80.7787 H        80      M_A    0.0000
    565 H         200.4250   60.4818   80.3719 H        80      M_A    0.0000
    566 H         200.0919   62.2772   77.9951 H        80      M_A    0.0000
    567 H         201.2592   60.9953   78.2856 H        80      M_A    0.0000
    568 C         203.0207   62.3678   79.1314 C.3      81      M_A    0.0000
    569 C         204.0597   63.4849   79.1618 C.3      81      M_A    0.0000
    570 O         204.5445   63.6814   80.4900 O.3      81      M_A    0.0000
    571 H         203.1342   61.6989   79.9911 H        81      M_A    0.0000
    572 H         203.1691   61.7702   78.2246 H        81      M_A    0.0000
    573 H         203.6246   64.4348   78.8270 H        81      M_A    0.0000
    574 H         204.8803   63.2589   78.4658 H        81      M_A    0.0000
    575 C         205.3673   64.8270   80.5760 C.3      82      M_A    0.0000
    576 C         205.3272   65.4598   81.9639 C.3      82      M_A    0.0000
    577 O         206.6227   65.9285   82.3379 O.3      82      M_A    0.0000
    578 H         206.3902   64.5542   80.2954 H        82      M_A    0.0000
    579 H         205.0060   65.5572   79.8428 H        82      M_A    0.0000
    580 H         205.0113   64.7295   82.7193 H        82      M_A    0.0000
    581 H         204.5856   66.2711   81.9897 H        82      M_A    0.0000
    582 C         207.2999   66.5072   81.2409 C.3      83      M_A    0.0000
    583 C         207.7787   67.9238   81.5444 C.3      83      M_A    0.0000
    584 O         209.2030   67.9956   81.4789 O.3      83      M_A    0.0000
    585 H         208.1360   65.8601   80.9553 H        83      M_A    0.0000
    586 H         206.6036   66.5418   80.3952 H        83      M_A    0.0000
    587 H         207.4804   68.2311   82.5545 H        83      M_A    0.0000
    588 H         207.3101   68.6390   80.8531 H        83      M_A    0.0000
    589 C         209.6459   69.3245   81.2929 C.3      84      M_A    0.0000
    590 C         211.0210   69.3845   80.6344 C.3      84      M_A    0.0000
    591 O         211.1399   70.5579   79.8302 O.3      84      M_A    0.0000
    592 H         208.9012   69.8702   80.7037 H        84      M_A    0.0000
    593 H         209.7034   69.8015   82.2780 H        84      M_A    0.0000
    594 H         211.1804   68.5194   79.9788 H        84      M_A    0.0000
    595 H         211.8100   69.3421   81.3990 H        84      M_A    0.0000
    596 C         211.5363   71.6746   80.6000 C.3      85      M_A    0.0000
    597 C         211.9051   72.8713   79.7282 C.3      85      M_A    0.0000
    598 O         211.4104   74.0807   80.3030 O.3      85      M_A    0.0000
    599 H         210.7339   71.9285   81.3009 H        85      M_A    0.0000
    600 H         212.4123   71.3829   81.1907 H        85      M_A    0.0000
    601 H         211.4644   72.7788   78.7277 H        85      M_A    0.0000
    602 H         212.9942   72.9138   79.5830 H        85      M_A    0.0000
    603 C         212.0312   75.2155   79.7341 C.3      86      M_A    0.0000
    604 C         211.0173   76.2789   79.3228 C.3      86      M_A    0.0000
    605 O         211.3233   77.5283   79.9418 O.3      86      M_A    0.0000
    606 H         212.7601   75.6184   80.4454 H        86      M_A    0.0000
    607 H         212.5820   74.8881   78.8449 H        86      M_A    0.0000
    608 H         210.0040   75.9970   79.6352 H        86      M_A    0.0000
    609 H         210.9880   76.3719   78.2276 H        86      M_A    0.0000
    610 C         210.1610   78.3085   80.1345 C.3      87      M_A    0.0000
    611 C         210.1244   79.5221   79.2104 C.3      87      M_A    0.0000
    612 O         208.9667   79.4811   78.3762 O.3      87      M_A    0.0000
    613 H         209.2783   77.6761   79.9916 H        87      M_A    0.0000
    614 H         210.1559   78.6545   81.1745 H        87      M_A    0.0000
    615 H         211.0025   79.5415   78.5529 H        87      M_A    0.0000
    616 H         210.1597   80.4494   79.8002 H        87      M_A    0.0000
    617 C         208.7126   80.7379   77.7821 C.3      88      M_A    0.0000
    618 C         207.2203   80.9903   77.5887 C.3      88      M_A    0.0000
    619 O         206.7297   81.8823   78.5895 O.3      88      M_A    0.0000
    620 H         209.1699   81.5219   78.3951 H        88      M_A    0.0000
    621 H         209.2046   80.7534   76.8029 H        88      M_A    0.0000
    622 H         206.6501   80.0567   77.6728 H        88      M_A    0.0000
    623 H         207.0289   81.3789   76.5782 H        88      M_A    0.0000
    624 C         205.3801   81.6103   78.9082 C.3      89      M_A    0.0000
    625 C         204.8561   82.5224   80.0134 C.3      89      M_A    0.0000
    626 O         204.1846   83.6513   79.4542 O.3      89      M_A    0.0000
    627 H         204.7736   81.7001   78.0007 H        89      M_A    0.0000
    628 H         205.3170   80.5700   79.2473 H        89      M_A    0.0000
    629 H         205.6788   82.9027   80.6316 H        89      M_A    0.0000
    630 H         204.1966   81.9593   80.6894 H        89      M_A    0.0000
    631 C         204.7932   84.8636   79.8501 C.3      90      M_A    0.0000
    632 C         203.9654   85.6076   80.8938 C.3      90      M_A    0.0000
    633 O         204.7926   86.0380   81.9747 O.3      90      M_A    0.0000
    634 H         205.8014   84.6524   80.2223 H        90      M_A    0.0000
    635 H         204.8941   85.4962   78.9608 H        90      M_A    0.0000
    636 H         203.1876   84.9578   81.3140 H        90      M_A    0.0000
    637 H         203.4417   86.4553   80.4289 H        90      M_A    0.0000
    638 C         205.9715   86.6616   81.5073 C.3      91      M_A    0.0000
    639 C         206.3155   87.9133   82.3093 C.3      91      M_A    0.0000
    640 O         207.6990   87.9175   82.6612 O.3      91      M_A    0.0000
    641 H         206.7929   85.9376   81.5327 H        91      M_A    0.0000
    642 H         205.8109   86.9442   80.4606 H        91      M_A    0.0000
    643 H         205.7392   87.9526   83.2420 H        91      M_A    0.0000
    644 H         206.0448   88.8146   81.7408 H        91      M_A    0.0000
    645 C         208.1236   89.2005   83.0743 C.3      92      M_A    0.0000
    646 C         207.1660   89.8244   84.0851 C.3      92      M_A    0.0000
    647 O         207.4372   91.2176   84.2375 O.3      92      M_A    0.0000
    648 H         209.1371   89.1270   83.4830 H        92      M_A    0.0000
    649 H         208.1698   89.8421   82.1869 H        92      M_A    0.0000
    650 H         207.2783   89.3580   85.0719 H        92      M_A    0.0000
    651 H         206.1245   89.6509   83.7783 H        92      M_A    0.0000
    652 C         206.8403   91.9766   83.2058 C.3      93      M_A    0.0000
    653 C         205.3171   91.9667   83.2933 C.3      93      M_A    0.0000
    654 O         204.8378   93.2048   83.8179 O.3      93      M_A    0.0000
    655 H         207.2317   92.9988   83.2419 H        93      M_A    0.0000
    656 H         207.1433   91.5394   82.2474 H        93      M_A    0.0000
    657 H         204.9674   91.1696   83.9612 H        93      M_A    0.0000
    658 H         204.8816   91.7554   82.3060 H        93      M_A    0.0000
    659 C         203.4261   93.2302   83.8756 C.3      94      M_A    0.0000
    660 C         202.9149   93.5983   85.2653 C.3      94      M_A    0.0000
    661 O         201.8969   94.5951   85.1763 O.3      94      M_A    0.0000
    662 H         203.0500   93.9268   83.1188 H        94      M_A    0.0000
    663 H         203.0602   92.2301   83.6166 H        94      M_A    0.0000
    664 H         203.7224   94.0079   85.8849 H        94      M_A    0.0000
    665 H         202.5512   92.7007   85.7859 H        94      M_A    0.0000
    666 C         200.9706   94.4846   86.2377 C.3      95      M_A    0.0000
    667 C         199.7799   95.4222   86.0606 C.3      95      M_A    0.0000
    668 O         198.5589   94.7401   86.3462 O.3      95      M_A    0.0000
    669 H         200.6441   93.4424   86.3200 H        95      M_A    0.0000
    670 H         201.4906   94.7434   87.1671 H        95      M_A    0.0000
    671 H         199.7183   95.7878   85.0280 H        95      M_A    0.0000
    672 H         199.8993   96.3114   86.6963 H        95      M_A    0.0000
    673 C         197.6277   95.5911   86.9829 C.3      96      M_A    0.0000
    674 C         196.5552   96.0915   86.0198 C.3      96      M_A    0.0000
    675 O         195.2731   96.0779   86.6475 O.3      96      M_A    0.0000
    676 H         197.1812   95.0614   87.8311 H        96      M_A    0.0000
    677 H         198.1760   96.4524   87.3815 H        96      M_A    0.0000
    678 H         196.4935   95.4488   85.1327 H        96      M_A    0.0000
    679 H         196.8114   97.0968   85.6555 H        96      M_A    0.0000
    680 C         194.2319   96.0000   85.6953 C.3      97      M_A    0.0000
    681 C         192.9617   96.6959   86.1753 C.3      97      M_A    0.0000
    682 O         192.9884   98.0806   85.8291 O.3      97      M_A    0.0000
    683 H         194.5814   96.4244   84.7481 H        97      M_A    0.0000
    684 H         194.0119   94.9402   85.5225 H        97      M_A    0.0000
    685 H         192.8674   96.6319   87.2665 H        97      M_A    0.0000
    686 H         192.0749   96.1966   85.7589 H        97      M_A    0.0000
    687 C         192.0541   98.8214   86.5875 C.3      98      M_A    0.0000
    688 C         192.2900  100.3250   86.4790 C.3      98      M_A    0.0000
    689 O         191.0474  101.0205   86.3774 O.3      98      M_A    0.0000
    690 H         191.0416   98.5559   86.2655 H        98      M_A    0.0000
    691 H         192.1578   98.5211   87.6365 H        98      M_A    0.0000
    692 H         192.8760  100.5669   85.5836 H        98      M_A    0.0000
    693 H         192.8777  100.6799   87.3378 H        98      M_A    0.0000
    694 C         190.4135  101.1334   87.6353 C.3      99      M_A    0.0000
    695 C         190.1310  102.5859   88.0075 C.3      99      M_A    0.0000
    696 O         188.8273  102.9699   87.5709 O.3      99      M_A    0.0000
    697 H         189.4921  100.5414   87.6255 H        99      M_A    0.0000
    698 H         191.0796  100.6975   88.3886 H        99      M_A    0.0000
    699 H         190.8504  103.2612   87.5275 H        99      M_A    0.0000
    700 H         190.2483  102.7297   89.0912 H        99      M_A    0.0000
    701 C         188.6131  104.3566   87.7391 C.3     100      M_A    0.0000
    702 C         189.4490  105.1882   86.7708 C.3     100      M_A    0.0000
    703 O         188.6740  106.2600   86.2337 O.3     100      M_A    0.0000
    704 H         187.5451  104.5698   87.6232 H       100      M_A    0.0000
    705 H         188.8939  104.6189   88.7655 H       100      M_A    0.0000
    706 H         189.7952  104.5782   85.9271 H       100      M_A    0.0000
    707 H         190.3530  105.5612   87.2735 H       100      M_A    0.0000
    708 C         188.8711  107.4557   86.9606 C.3     101      M_A    0.0000
    709 C         188.4099  108.6839   86.1815 C.3     101      M_A    0.0000
    710 O         187.4106  109.3942   86.9127 O.3     101      M_A    0.0000
    711 H         188.3518  107.3793   87.9218 H       101      M_A    0.0000
    712 H         189.9429  107.5503   87.1695 H       101      M_A    0.0000
    713 H         187.9698  108.3957   85.2187 H       101      M_A    0.0000
    714 H         189.2687  109.3294   85.9475 H       101      M_A    0.0000
    715 C         186.8379  110.4270   86.1366 C.3     102      M_A    0.0000
    716 C         186.0456  111.4138   86.9890 C.3     102      M_A    0.0000
    717 O         186.7024  112.6806   87.0287 O.3     102      M_A    0.0000
    718 H         187.6306  110.9352   85.5774 H       102      M_A    0.0000
    719 H         186.1618  109.9654   85.4078 H       102      M_A    0.0000
    720 H         185.9572  111.0570   88.0227 H       102      M_A    0.0000
    721 H         185.0192  111.5074   86.6059 H       102      M_A    0.0000
    722 C         185.8444  113.6931   87.5141 C.3     103      M_A    0.0000
    723 C         185.1586  113.2892   88.8159 C.3     103      M_A    0.0000
    724 O         184.9777  114.4262   89.6599 O.3     103      M_A    0.0000
    725 H         186.4179  114.6176   87.6397 H       103      M_A    0.0000
    726 H         185.0782  113.8791   86.7526 H       103      M_A    0.0000
    727 H         185.7651  112.5620   89.3699 H       103      M_A    0.0000
    728 H         184.2007  112.7934   88.6023 H       103      M_A    0.0000
    729 C         184.5729  115.5603   88.9203 C.3     104      M_A    0.0000
    730 C         185.0693  116.8606   89.5455 C.3     104      M_A    0.0000
    731 O         185.6920  117.6841   88.5596 O.3     104      M_A    0.0000
    732 H         184.9250  115.4582   87.8883 H       104      M_A    0.0000
    733 H         183.4772  115.5738   88.8969 H       104      M_A    0.0000
    734 H         185.8146  116.6617   90.3256 H       104      M_A    0.0000
    735 H         184.2388  117.3858   90.0387 H       104      M_A    0.0000
    736 C         185.9462  118.9826   89.0558 C.3     105      M_A    0.0000
    737 C         187.4060  119.3894   88.8784 C.3     105      M_A    0.0000
    738 O         187.5055  120.5492   88.0520 O.3     105      M_A    0.0000
    739 H         185.2750  119.6922   88.5604 H       105      M_A    0.0000
    740 H         185.7039  118.9882   90.1247 H       105      M_A    0.0000
    741 H         187.9801  118.5902   88.3933 H       105      M_A    0.0000
    742 H         187.8755  119.5555   89.8587 H       105      M_A    0.0000
    743 C         188.7118  120.5580   87.3162 C.3     106      M_A    0.0000
    744 C         189.0145  121.9323   86.7263 C.3     106      M_A    0.0000
    745 O         189.7435  122.7283   87.6604 O.3     106      M_A    0.0000
    746 H         189.5274  120.2171   87.9628 H       106      M_A    0.0000
    747 H         188.6130  119.8351   86.4983 H       106      M_A    0.0000
    748 H         188.0882  122.4702   86.4888 H       106      M_A    0.0000
    749 H         189.5616  121.8263   85.7785 H       106      M_A    0.0000
    750 C         190.3486  123.8397   87.0315 C.3     107      M_A    0.0000
    751 C         189.8158  125.1644   87.5696 C.3     107      M_A    0.0000
    752 O         190.8756  126.1107   87.7084 O.3     107      M_A    0.0000
    753 H         191.4349  123.7717   87.1535 H       107      M_A    0.0000
    754 H         190.1311  123.7796   85.9589 H       107      M_A    0.0000
    755 H         189.3620  125.0318   88.5597 H       107      M_A    0.0000
    756 H         189.0205  125.5479   86.9144 H       107      M_A    0.0000
    757 C         190.3786  127.4156   87.9250 C.3     108      M_A    0.0000
    758 C         191.4937  128.4567   87.9571 C.3     108      M_A    0.0000
    759 O         191.0304  129.7025   87.4363 O.3     108      M_A    0.0000
    760 H         189.6409  127.6503   87.1503 H       108      M_A    0.0000
    761 H         189.8593  127.4225   88.8902 H       108      M_A    0.0000
    762 H         192.3448  128.1395   87.3417 H       108      M_A    0.0000
    763 H         191.8782  128.5695   88.9810 H       108      M_A    0.0000
    764 C         190.3173  130.4372   88.4103 C.3     109      M_A    0.0000
    765 C         189.5558  131.6105   87.8007 C.3     109      M_A    0.0000
    766 O         188.1650  131.5189   88.1091 O.3     109      M_A    0.0000
    767 H         189.6406  129.7609   88.9435 H       109      M_A    0.0000
    768 H         191.0407  130.8234   89.1375 H       109      M_A    0.0000
    769 H         189.6504  131.6145   86.7076 H       109      M_A    0.0000
    770 H         189.9812  132.5620   88.1508 H       109      M_A    0.0000
    771 C         187.5272  132.7751   88.0000 C.3     110      M_A    0.0000
    772 C         187.1486  133.1037   86.5589 C.3     110      M_A    0.0000
    773 O         185.9573  133.8893   86.5211 O.3     110      M_A    0.0000
    774 H         186.6476  132.7872   88.6524 H       110      M_A    0.0000
    775 H         188.2224  133.5390   88.3669 H       110      M_A    0.0000
    776 H         186.9569  132.1884   85.9850 H       110      M_A    0.0000
    777 H         187.9812  133.6153   86.0550 H       110      M_A    0.0000
    778 C         186.2203  135.2068   86.0832 C.3     111      M_A    0.0000
    779 C         184.9447  136.0339   85.9525 C.3     111      M_A    0.0000
    780 O         185.2280  137.4219   86.1285 O.3     111      M_A    0.0000
    781 H         186.9281  135.6783   86.7733 H       111      M_A    0.0000
    782 H         186.7051  135.1454   85.1021 H       111      M_A    0.0000
    783 H         184.2118  135.7486   86.7174 H       111      M_A    0.0000
    784 H         184.4669  135.8434   84.9807 H       111      M_A    0.0000
    785 C         184.0941  138.1265   86.5918 C.3     112      M_A    0.0000
    786 C         183.9037  139.4523   85.8609 C.3     112      M_A    0.0000
    787 O         182.6213  139.4993   85.2355 O.3     112      M_A    0.0000
    788 H         183.2101  137.4881   86.4892 H       112      M_A    0.0000
    789 H         184.2355  138.3276   87.6599 H       112      M_A    0.0000
    790 H         184.6578  139.5785   85.0740 H       112      M_A    0.0000
    791 H         184.0402  140.2923   86.5569 H       112      M_A    0.0000
    792 C         182.6635  140.2241   84.0231 C.3     113      M_A    0.0000
    793 C         181.3815  140.0611   83.2119 C.3     113      M_A    0.0000
    794 O         180.7807  141.3323   82.9647 O.3     113      M_A    0.0000
    795 H         182.8602  141.2786   84.2438 H       113      M_A    0.0000
    796 H         183.5065  139.8460   83.4336 H       113      M_A    0.0000
    797 H         180.6484  139.4513   83.7545 H       113      M_A    0.0000
    798 H         181.5915  139.5288   82.2731 H       113      M_A    0.0000
    799 C         179.8091  141.2550   81.9415 C.3     114      M_A    0.0000
    800 C         178.4479  141.7675   82.4023 C.3     114      M_A    0.0000
    801 O         177.7872  142.4568   81.3410 O.3     114      M_A    0.0000
    802 H         180.1656  141.8106   81.0675 H       114      M_A    0.0000
    803 H         179.7113  140.2034   81.6484 H       114      M_A    0.0000
    804 H         178.5556  142.4733   83.2354 H       114      M_A    0.0000
    805 H         177.8369  140.9351   82.7799 H       114      M_A    0.0000
    806 C         177.3397  141.5621   80.3428 C.3     115      M_A    0.0000
    807 C         175.9432  141.9150   79.8397 C.3     115      M_A    0.0000
    808 O         175.8073  141.5741   78.4601 O.3     115      M_A    0.0000
    809 H         178.0646  141.5510   79.5219 H       115      M_A    0.0000
    810 H         177.3162  140.5563   80.7778 H       115      M_A    0.0000
    811 H         175.7530  142.9916   79.9323 H       115      M_A    0.0000
    812 H         175.1808  141.4130   80.4526 H       115      M_A    0.0000
    813 C         175.0847  140.3712   78.2934 C.3     116      M_A    0.0000
    814 C         174.5153  140.2341   76.8844 C.3     116      M_A    0.0000
    815 O         175.0015  139.0451   76.2617 O.3     116      M_A    0.0000
    816 H         175.7357  139.5260   78.5406 H       116      M_A    0.0000
    817 H         174.2568  140.3731   79.0117 H       116      M_A    0.0000
    818 H         174.8163  141.0811   76.2552 H       116      M_A    0.0000
    819 H         173.4164  140.2482   76.9162 H       116      M_A    0.0000
    820 C         174.7859  139.0673   74.8653 C.3     117      M_A    0.0000
    821 C         175.7088  140.0549   74.1575 C.3     117      M_A    0.0000
    822 O         176.6380  139.3624   73.3240 O.3     117      M_A    0.0000
    823 H         174.9116  138.0544   74.4682 H       117      M_A    0.0000
    824 H         173.7459  139.3654   74.6896 H       117      M_A    0.0000
    825 H         176.2896  140.6384   74.8828 H       117      M_A    0.0000
    826 H         175.1174  140.7803   73.5805 H       117      M_A    0.0000
    827 C         177.6173  140.2376   72.8028 C.3     118      M_A    0.0000
    828 C         178.9846  139.5693   72.6928 C.3     118      M_A    0.0000
    829 O         179.2272  139.1436   71.3520 O.3     118      M_A    0.0000
    830 H         177.2809  140.6118   71.8300 H       118      M_A    0.0000
    831 H         177.6959  141.0965   73.4791 H       118      M_A    0.0000
    832 H         179.0402  138.6812   73.3346 H       118      M_A    0.0000
    833 H         179.7707  140.2533   73.0436 H       118      M_A    0.0000
    834 C         179.6845  140.2100   70.5455 C.3     119      M_A    0.0000
    835 C         181.0418  139.9122   69.9154 C.3     119      M_A    0.0000
    836 O         180.8850  139.1119   68.7437 O.3     119      M_A    0.0000
    837 H         178.9322  140.4270   69.7796 H       119      M_A    0.0000
    838 H         179.7759  141.0981   71.1812 H       119      M_A    0.0000
    839 H         181.6834  139.3557   70.6099 H       119      M_A    0.0000
    840 H         181.5701  140.8501   69.6912 H       119      M_A    0.0000
    841 C         182.1311  138.8264   68.1418 C.3     120      M_A    0.0000
    842 C         182.1349  137.4684   67.4461 C.3     120      M_A    0.0000
    843 O         182.1448  137.6326   66.0280 O.3     120      M_A    0.0000
    844 H         182.3822  139.6300   67.4414 H       120      M_A    0.0000
    845 H         182.8931  138.8233   68.9296 H       120      M_A    0.0000
    846 H         181.2372  136.8927   67.7038 H       120      M_A    0.0000
    847 H         182.9931  136.8705   67.7854 H       120      M_A    0.0000
    848 C         183.0314  138.6594   65.6325 C.3     121      M_A    0.0000
    849 C         183.3967  138.5646   64.1540 C.3     121      M_A    0.0000
    850 O         183.2306  139.8305   63.5153 O.3     121      M_A    0.0000
    851 H         182.5814  139.6300   65.8670 H       121      M_A    0.0000
    852 H         183.9451  138.5646   66.2302 H       121      M_A    0.0000
    853 H         182.7489  137.8472   63.6348 H       121      M_A    0.0000
    854 H         184.4245  138.1911   64.0403 H       121      M_A    0.0000
    855 C         184.3448  140.6712   63.7360 C.3     122      M_A    0.0000
    856 C         185.0029  141.1069   62.4301 C.3     122      M_A    0.0000
    857 O         185.3717  142.4846   62.4909 O.3     122      M_A    0.0000
    858 H         184.0277  141.5370   64.3269 H       122      M_A    0.0000
    859 H         185.0756  140.1127   64.3321 H       122      M_A    0.0000
    860 H         184.3138  140.9883   61.5846 H       122      M_A    0.0000
    861 H         185.8718  140.4695   62.2119 H       122      M_A    0.0000
    862 C         185.3440  143.0844   61.2116 C.3     123      M_A    0.0000
    863 C         186.2511  144.3087   61.1318 C.3     123      M_A    0.0000
    864 O         187.3709  144.0475   60.2858 O.3     123      M_A    0.0000
    865 H         185.6215  142.3371   60.4606 H       123      M_A    0.0000
    866 H         184.3126  143.3933   61.0066 H       123      M_A    0.0000
    867 H         186.6422  144.5727   62.1223 H       123      M_A    0.0000
    868 H         185.6808  145.1814   60.7823 H       123      M_A    0.0000
    869 C         187.8503  145.2319   59.6820 C.3     124      M_A    0.0000
    870 C         189.2433  145.0497   59.0868 C.3     124      M_A    0.0000
    871 O         189.1591  144.7946   57.6848 O.3     124      M_A    0.0000
    872 H         187.1347  145.5596   58.9204 H       124      M_A    0.0000
    873 H         187.8931  146.0097   60.4531 H       124      M_A    0.0000
    874 H         189.7577  144.1961   59.5457 H       124      M_A    0.0000
    875 H         189.8639  145.9329   59.2959 H       124      M_A    0.0000
    876 C         190.2442  144.0085   57.2359 C.3     125      M_A    0.0000
    877 C         190.1994  143.7752   55.7287 C.3     125      M_A    0.0000
    878 O         191.1251  144.6333   55.0618 O.3     125      M_A    0.0000
    879 H         191.1816  144.4901   57.5338 H       125      M_A    0.0000
    880 H         190.1925  143.0399   57.7463 H       125      M_A    0.0000
    881 H         189.2019  143.9928   55.3272 H       125      M_A    0.0000
    882 H         190.3995  142.7181   55.5022 H       125      M_A    0.0000
    883 C         191.5288  144.0932   53.8200 C.3     126      M_A    0.0000
    884 C         190.6616  144.5920   52.6679 C.3     126      M_A    0.0000
    885 O         191.1937  145.8019   52.1285 O.3     126      M_A    0.0000
    886 H         192.5844  144.3321   53.6525 H       126      M_A    0.0000
    887 H         191.4418  143.0024   53.8826 H       126      M_A    0.0000
    888 H         189.6408  144.8053   53.0086 H       126      M_A    0.0000
    889 H         190.5732  143.8147   51.8953 H       126      M_A    0.0000
    890 C         190.6422  146.0890   50.8595 C.3     127      M_A    0.0000
    891 C         190.5821  147.5889   50.5856 C.3     127      M_A    0.0000
    892 O         191.7376  148.0121   49.8620 O.3     127      M_A    0.0000
    893 H         191.2247  145.5698   50.0909 H       127      M_A    0.0000
    894 H         189.6245  145.6830   50.8347 H       127      M_A    0.0000
    895 H         190.5548  148.1583   51.5230 H       127      M_A    0.0000
    896 H         189.6579  147.8392   50.0452 H       127      M_A    0.0000
    897 C         191.7948  149.4201   49.7566 C.3     128      M_A    0.0000
    898 C         192.7142  149.8745   48.6268 C.3     128      M_A    0.0000
    899 O         192.1194  150.9488   47.8990 O.3     128      M_A    0.0000
    900 H         190.7803  149.8100   49.6216 H       128      M_A    0.0000
    901 H         192.1776  149.8138   50.7052 H       128      M_A    0.0000
    902 H         192.8967  149.0581   47.9169 H       128      M_A    0.0000
    903 H         193.6971  150.1596   49.0287 H       128      M_A    0.0000
    904 C         192.8645  151.2636   46.7403 C.3     129      M_A    0.0000
    905 C         192.3802  152.5501   46.0781 C.3     129      M_A    0.0000
    906 O         193.0664  153.6797   46.6175 O.3     129      M_A    0.0000
    907 H         193.9253  151.3303   47.0047 H       129      M_A    0.0000
    908 H         192.7511  150.4355   46.0313 H       129      M_A    0.0000
    909 H         191.3079  152.7024   46.2537 H       129      M_A    0.0000
    910 H         192.5086  152.4874   44.9879 H       129      M_A    0.0000
    911 C         192.9802  154.7969   45.7565 C.3     130      M_A    0.0000
    912 C         191.9713  155.8281   46.2532 C.3     130      M_A    0.0000
    913 O         192.5708  157.1218   46.3225 O.3     130      M_A    0.0000
    914 H         193.9757  155.2397   45.6449 H       130      M_A    0.0000
    915 H         192.6643  154.4385   44.7701 H       130      M_A    0.0000
    916 H         191.6160  155.5764   47.2603 H       130      M_A    0.0000
    917 H         191.0833  155.8331   45.6049 H       130      M_A    0.0000
    918 C         192.4798  157.8009   45.0866 C.3     131      M_A    0.0000
    919 C         191.6345  159.0671   45.1881 C.3     131      M_A    0.0000
    920 O         192.4068  160.2142   44.8337 O.3     131      M_A    0.0000
    921 H         193.4896  158.0274   44.7281 H       131      M_A    0.0000
    922 H         192.0155  157.1218   44.3623 H       131      M_A    0.0000
    923 H         191.2744  159.2176   46.2135 H       131      M_A    0.0000
    924 H         190.7390  158.9773   44.5565 H       131      M_A    0.0000
    925 C         191.5830  161.2829   44.4140 C.3     132      M_A    0.0000
    926 C         190.4286  161.5316   45.3802 C.3     132      M_A    0.0000
    927 O         189.7081  162.7062   45.0073 O.3     132      M_A    0.0000
    928 H         192.1974  162.1814   44.2926 H       132      M_A    0.0000
    929 H         191.1732  161.0263   43.4304 H       132      M_A    0.0000
    930 H         190.7977  161.6831   46.4022 H       132      M_A    0.0000
    931 H         189.7688  160.6528   45.4173 H       132      M_A    0.0000
    932 C         188.7178  162.4206   44.0406 C.3     133      M_A    0.0000
    933 C         188.2906  163.6667   43.2707 C.3     133      M_A    0.0000
    934 O         188.0210  163.3442   41.9065 O.3     133      M_A    0.0000
    935 H         189.0929  161.6464   43.3628 H       133      M_A    0.0000
    936 H         187.8458  162.0101   44.5626 H       133      M_A    0.0000
    937 H         189.0842  164.4243   43.2785 H       133      M_A    0.0000
    938 H         187.4173  164.1296   43.7524 H       133      M_A    0.0000
    939 C         187.2885  164.3700   41.2676 C.3     134      M_A    0.0000
    940 C         186.9565  164.0219   39.8195 C.3     134      M_A    0.0000
    941 O         185.6150  164.3986   39.5092 O.3     134      M_A    0.0000
    942 H         186.3794  164.5721   41.8439 H       134      M_A    0.0000
    943 H         187.8995  165.2798   41.2824 H       134      M_A    0.0000
    944 H         187.0432  162.9421   39.6456 H       134      M_A    0.0000
    945 H         187.6743  164.5027   39.1395 H       134      M_A    0.0000
    946 C         185.2252  163.9225   38.2371 C.3     135      M_A    0.0000
    947 C         183.8996  164.5244   37.7802 C.3     135      M_A    0.0000
    948 O         184.0704  165.8948   37.4186 O.3     135      M_A    0.0000
    949 H         186.0235  164.1321   37.5171 H       135      M_A    0.0000
    950 H         185.1162  162.8340   38.3035 H       135      M_A    0.0000
    951 H         183.1539  164.4873   38.5841 H       135      M_A    0.0000
    952 H         183.4846  163.9396   36.9468 H       135      M_A    0.0000
    953 C         182.8375  166.5852   37.4110 C.3     136      M_A    0.0000
    954 C         182.3062  166.8271   38.8207 C.3     136      M_A    0.0000
    955 O         182.0114  168.2104   39.0140 O.3     136      M_A    0.0000
    956 H         182.9592  167.5281   36.8673 H       136      M_A    0.0000
    957 H         182.1132  165.9754   36.8589 H       136      M_A    0.0000
    958 H         183.0499  166.5411   39.5750 H       136      M_A    0.0000
    959 H         181.4220  166.2002   39.0058 H       136      M_A    0.0000
    960 C         181.3520  168.7604   37.8917 C.3     137      M_A    0.0000
    961 C         180.1511  169.6124   38.2919 C.3     137      M_A    0.0000
    962 O         179.9874  170.7034   37.3859 O.3     137      M_A    0.0000
    963 H         182.0708  169.3415   37.3042 H       137      M_A    0.0000
    964 H         181.0051  167.9310   37.2648 H       137      M_A    0.0000
    965 H         180.2870  170.0359   39.2949 H       137      M_A    0.0000
    966 H         179.2445  168.9922   38.3389 H       137      M_A    0.0000
    967 C         178.7057  171.2865   37.5047 C.3     138      M_A    0.0000
    968 C         177.8930  171.1531   36.2202 C.3     138      M_A    0.0000
    969 O         176.7044  170.3985   36.4562 O.3     138      M_A    0.0000
    970 H         178.1829  170.8307   38.3524 H       138      M_A    0.0000
    971 H         178.8391  172.3505   37.7309 H       138      M_A    0.0000
    972 H         178.4665  170.6290   35.4455 H       138      M_A    0.0000
    973 H         177.6610  172.1477   35.8129 H       138      M_A    0.0000
    974 C         175.7714  170.5619   35.4075 C.3     139      M_A    0.0000
    975 C         174.5805  169.6181   35.5463 C.3     139      M_A    0.0000
    976 O         173.5843  170.1907   36.3934 O.3     139      M_A    0.0000
    977 H         175.4460  171.6072   35.3783 H       139      M_A    0.0000
    978 H         176.2850  170.3481   34.4631 H       139      M_A    0.0000
    979 H         174.8854  168.6648   35.9957 H       139      M_A    0.0000
    980 H         174.1711  169.3753   34.5552 H       139      M_A    0.0000
    981 C         172.6519  169.2202   36.8245 C.3     140      M_A    0.0000
    982 C         172.6931  169.0159   38.3360 C.3     140      M_A    0.0000
    983 O         171.4226  168.5768   38.8165 O.3     140      M_A    0.0000
    984 H         171.6505  169.5145   36.4925 H       140      M_A    0.0000
    985 H         172.8993  168.2730   36.3317 H       140      M_A    0.0000
    986 H         172.9334  169.9536   38.8525 H       140      M_A    0.0000
    987 H         173.4886  168.3047   38.6012 H       140      M_A    0.0000
    988 C         170.9367  167.4815   38.0672 C.3     141      M_A    0.0000
    989 C         170.6991  166.2509   38.9374 C.3     141      M_A    0.0000
    990 O         169.5298  165.5530   38.5087 O.3     141      M_A    0.0000
    991 H         170.0201  167.7819   37.5486 H       141      M_A    0.0000
    992 H         171.6844  167.2371   37.3040 H       141      M_A    0.0000
    993 H         170.5460  166.5352   39.9860 H       141      M_A    0.0000
    994 H         171.5834  165.5977   38.9206 H       141      M_A    0.0000
    995 C         169.8559  164.3110   37.9190 C.3     142      M_A    0.0000
    996 C         168.6817  163.3370   37.9454 C.3     142      M_A    0.0000
    997 O         168.4483  162.7992   36.6438 O.3     142      M_A    0.0000
    998 H         170.2046  164.4821   36.8950 H       142      M_A    0.0000
    999 H         170.6888  163.8777   38.4846 H       142      M_A    0.0000
   1000 H         167.7604  163.8412   38.2626 H       142      M_A    0.0000
   1001 H         168.8662  162.5400   38.6802 H       142      M_A    0.0000
   1002 C         167.1266  162.3166   36.5131 C.3     143      M_A    0.0000
   1003 C         167.0782  160.9526   35.8309 C.3     143      M_A    0.0000
   1004 O         167.4709  159.9243   36.7398 O.3     143      M_A    0.0000
   1005 H         166.6599  162.2801   37.5032 H       143      M_A    0.0000
   1006 H         166.5635  163.0360   35.9075 H       143      M_A    0.0000
   1007 H         167.7659  160.9163   34.9767 H       143      M_A    0.0000
   1008 H         166.0730  160.7661   35.4261 H       143      M_A    0.0000
   1009 C         167.7980  158.7297   36.0593 C.3     144      M_A    0.0000
   1010 C         169.0392  158.8877   35.1861 C.3     144      M_A    0.0000
   1011 O         170.1074  158.0825   35.6843 O.3     144      M_A    0.0000
   1012 H         167.9294  157.9259   36.7914 H       144      M_A    0.0000
   1013 H         166.9477  158.4615   35.4217 H       144      M_A    0.0000
   1014 H         169.3865  159.9285   35.1821 H       144      M_A    0.0000
   1015 H         168.8030  158.6371   34.1419 H       144      M_A    0.0000
   1016 H         170.1265  157.2037   35.2510 H       144      M_A    0.0000
   1017 H         121.0149  103.2763   34.2128 H         0      M_A    0.0000
@<TRIPOS>BOND
     1     1     2      1
     2     1     4      1
     3     1     5      1
     4     1  1017      1
     5     2     3      1
     6     2     6      1
     7     2     7      1
     8     3     8      1
     9     8     9      1
    10     8    11      1
    11     8    12      1
    12     9    10      1
    13     9    13      1
    14     9    14      1
    15    10    15      1
    16    15    16      1
    17    15    18      1
    18    15    19      1
    19    16    17      1
    20    16    20      1
    21    16    21      1
    22    17    22      1
    23    22    23      1
    24    22    25      1
    25    22    26      1
    26    23    24      1
    27    23    27      1
    28    23    28      1
    29    24    29      1
    30    29    30      1
    31    29    32      1
    32    29    33      1
    33    30    31      1
    34    30    34      1
    35    30    35      1
    36    31    36      1
    37    36    37      1
    38    36    39      1
    39    36    40      1
    40    37    38      1
    41    37    41      1
    42    37    42      1
    43    38    43      1
    44    43    44      1
    45    43    46      1
    46    43    47      1
    47    44    45      1
    48    44    48      1
    49    44    49      1
    50    45    50      1
    51    50    51      1
    52    50    53      1
    53    50    54      1
    54    51    52      1
    55    51    55      1
    56    51    56      1
    57    52    57      1
    58    57    58      1
    59    57    60      1
    60    57    61      1
    61    58    59      1
    62    58    62      1
    63    58    63      1
    64    59    64      1
    65    64    65      1
    66    64    67      1
    67    64    68      1
    68    65    66      1
    69    65    69      1
    70    65    70      1
    71    66    71      1
    72    71    72      1
    73    71    74      1
    74    71    75      1
    75    72    73      1
    76    72    76      1
    77    72    77      1
    78    73    78      1
    79    78    79      1
    80    78    81      1
    81    78    82      1
    82    79    80      1
    83    79    83      1
    84    79    84      1
    85    80    85      1
    86    85    86      1
    87    85    88      1
    88    85    89      1
    89    86    87      1
    90    86    90      1
    91    86    91      1
    92    87    92      1
    93    92    93      1
    94    92    95      1
    95    92    96      1
    96    93    94      1
    97    93    97      1
    98    93    98      1
    99    94    99      1
   100    99   100      1
   101    99   102      1
   102    99   103      1
   103   100   101      1
   104   100   104      1
   105   100   105      1
   106   101   106      1
   107   106   107      1
   108   106   109      1
   109   106   110      1
   110   107   108      1
   111   107   111      1
   112   107   112      1
   113   108   113      1
   114   113   114      1
   115   113   116      1
   116   113   117      1
   117   114   115      1
   118   114   118      1
   119   114   119      1
   120   115   120      1
   121   120   121      1
   122   120   123      1
   123   120   124      1
   124   121   122      1
   125   121   125      1
   126   121   126      1
   127   122   127      1
   128   127   128      1
   129   127   130      1
   130   127   131      1
   131   128   129      1
   132   128   132      1
   133   128   133      1
   134   129   134      1
   135   134   135      1
   136   134   137      1
   137   134   138      1
   138   135   136      1
   139   135   139      1
   140   135   140      1
   141   136   141      1
   142   141   142      1
   143   141   144      1
   144   141   145      1
   145   142   143      1
   146   142   146      1
   147   142   147      1
   148   143   148      1
   149   148   149      1
   150   148   151      1
   151   148   152      1
   152   149   150      1
   153   149   153      1
   154   149   154      1
   155   150   155      1
   156   155   156      1
   157   155   158      1
   158   155   159      1
   159   156   157      1
   160   156   160      1
   161   156   161      1
   162   157   162      1
   163   162   163      1
   164   162   165      1
   165   162   166      1
   166   163   164      1
   167   163   167      1
   168   163   168      1
   169   164   169      1
   170   169   170      1
   171   169   172      1
   172   169   173      1
   173   170   171      1
   174   170   174      1
   175   170   175      1
   176   171   176      1
   177   176   177      1
   178   176   179      1
   179   176   180      1
   180   177   178      1
   181   177   181      1
   182   177   182      1
   183   178   183      1
   184   183   184      1
   185   183   186      1
   186   183   187      1
   187   184   185      1
   188   184   188      1
   189   184   189      1
   190   185   190      1
   191   190   191      1
   192   190   193      1
   193   190   194      1
   194   191   192      1
   195   191   195      1
   196   191   196      1
   197   192   197      1
   198   197   198      1
   199   197   200      1
   200   197   201      1
   201   198   199      1
   202   198   202      1
   203   198   203      1
   204   199   204      1
   205   204   205      1
   206   204   207      1
   207   204   208      1
   208   205   206      1
   209   205   209      1
   210   205   210      1
   211   206   211      1
   212   211   212      1
   213   211   214      1
   214   211   215      1
   215   212   213      1
   216   212   216      1
   217   212   217      1
   218   213   218      1
   219   218   219      1
   220   218   221      1
   221   218   222      1
   222   219   220      1
   223   219   223      1
   224   219   224      1
   225   220   225      1
   226   225   226      1
   227   225   228      1
   228   225   229      1
   229   226   227      1
   230   226   230      1
   231   226   231      1
   232   227   232      1
   233   232   233      1
   234   232   235      1
   235   232   236      1
   236   233   234      1
   237   233   237      1
   238   233   238      1
   239   234   239      1
   240   239   240      1
   241   239   242      1
   242   239   243      1
   243   240   241      1
   244   240   244      1
   245   240   245      1
   246   241   246      1
   247   246   247      1
   248   246   249      1
   249   246   250      1
   250   247   248      1
   251   247   251      1
   252   247   252      1
   253   248   253      1
   254   253   254      1
   255   253   256      1
   256   253   257      1
   257   254   255      1
   258   254   258      1
   259   254   259      1
   260   255   260      1
   261   260   261      1
   262   260   263      1
   263   260   264      1
   264   261   262      1
   265   261   265      1
   266   261   266      1
   267   262   267      1
   268   267   268      1
   269   267   270      1
   270   267   271      1
   271   268   269      1
   272   268   272      1
   273   268   273      1
   274   269   274      1
   275   274   275      1
   276   274   277      1
   277   274   278      1
   278   275   276      1
   279   275   279      1
   280   275   280      1
   281   276   281      1
   282   281   282      1
   283   281   284      1
   284   281   285      1
   285   282   283      1
   286   282   286      1
   287   282   287      1
   288   283   288      1
   289   288   289      1
   290   288   291      1
   291   288   292      1
   292   289   290      1
   293   289   293      1
   294   289   294      1
   295   290   295      1
   296   295   296      1
   297   295   298      1
   298   295   299      1
   299   296   297      1
   300   296   300      1
   301   296   301      1
   302   297   302      1
   303   302   303      1
   304   302   305      1
   305   302   306      1
   306   303   304      1
   307   303   307      1
   308   303   308      1
   309   304   309      1
   310   309   310      1
   311   309   312      1
   312   309   313      1
   313   310   311      1
   314   310   314      1
   315   310   315      1
   316   311   316      1
   317   316   317      1
   318   316   319      1
   319   316   320      1
   320   317   318      1
   321   317   321      1
   322   317   322      1
   323   318   323      1
   324   323   324      1
   325   323   326      1
   326   323   327      1
   327   324   325      1
   328   324   328      1
   329   324   329      1
   330   325   330      1
   331   330   331      1
   332   330   333      1
   333   330   334      1
   334   331   332      1
   335   331   335      1
   336   331   336      1
   337   332   337      1
   338   337   338      1
   339   337   340      1
   340   337   341      1
   341   338   339      1
   342   338   342      1
   343   338   343      1
   344   339   344      1
   345   344   345      1
   346   344   347      1
   347   344   348      1
   348   345   346      1
   349   345   349      1
   350   345   350      1
   351   346   351      1
   352   351   352      1
   353   351   354      1
   354   351   355      1
   355   352   353      1
   356   352   356      1
   357   352   357      1
   358   353   358      1
   359   358   359      1
   360   358   361      1
   361   358   362      1
   362   359   360      1
   363   359   363      1
   364   359   364      1
   365   360   365      1
   366   365   366      1
   367   365   368      1
   368   365   369      1
   369   366   367      1
   370   366   370      1
   371   366   371      1
   372   367   372      1
   373   372   373      1
   374   372   375      1
   375   372   376      1
   376   373   374      1
   377   373   377      1
   378   373   378      1
   379   374   379      1
   380   379   380      1
   381   379   382      1
   382   379   383      1
   383   380   381      1
   384   380   384      1
   385   380   385      1
   386   381   386      1
   387   386   387      1
   388   386   389      1
   389   386   390      1
   390   387   388      1
   391   387   391      1
   392   387   392      1
   393   388   393      1
   394   393   394      1
   395   393   396      1
   396   393   397      1
   397   394   395      1
   398   394   398      1
   399   394   399      1
   400   395   400      1
   401   400   401      1
   402   400   403      1
   403   400   404      1
   404   401   402      1
   405   401   405      1
   406   401   406      1
   407   402   407      1
   408   407   408      1
   409   407   410      1
   410   407   411      1
   411   408   409      1
   412   408   412      1
   413   408   413      1
   414   409   414      1
   415   414   415      1
   416   414   417      1
   417   414   418      1
   418   415   416      1
   419   415   419      1
   420   415   420      1
   421   416   421      1
   422   421   422      1
   423   421   424      1
   424   421   425      1
   425   422   423      1
   426   422   426      1
   427   422   427      1
   428   423   428      1
   429   428   429      1
   430   428   431      1
   431   428   432      1
   432   429   430      1
   433   429   433      1
   434   429   434      1
   435   430   435      1
   436   435   436      1
   437   435   438      1
   438   435   439      1
   439   436   437      1
   440   436   440      1
   441   436   441      1
   442   437   442      1
   443   442   443      1
   444   442   445      1
   445   442   446      1
   446   443   444      1
   447   443   447      1
   448   443   448      1
   449   444   449      1
   450   449   450      1
   451   449   452      1
   452   449   453      1
   453   450   451      1
   454   450   454      1
   455   450   455      1
   456   451   456      1
   457   456   457      1
   458   456   459      1
   459   456   460      1
   460   457   458      1
   461   457   461      1
   462   457   462      1
   463   458   463      1
   464   463   464      1
   465   463   466      1
   466   463   467      1
   467   464   465      1
   468   464   468      1
   469   464   469      1
   470   465   470      1
   471   470   471      1
   472   470   473      1
   473   470   474      1
   474   471   472      1
   475   471   475      1
   476   471   476      1
   477   472   477      1
   478   477   478      1
   479   477   480      1
   480   477   481      1
   481   478   479      1
   482   478   482      1
   483   478   483      1
   484   479   484      1
   485   484   485      1
   486   484   487      1
   487   484   488      1
   488   485   486      1
   489   485   489      1
   490   485   490      1
   491   486   491      1
   492   491   492      1
   493   491   494      1
   494   491   495      1
   495   492   493      1
   496   492   496      1
   497   492   497      1
   498   493   498      1
   499   498   499      1
   500   498   501      1
   501   498   502      1
   502   499   500      1
   503   499   503      1
   504   499   504      1
   505   500   505      1
   506   505   506      1
   507   505   508      1
   508   505   509      1
   509   506   507      1
   510   506   510      1
   511   506   511      1
   512   507   512      1
   513   512   513      1
   514   512   515      1
   515   512   516      1
   516   513   514      1
   517   513   517      1
   518   513   518      1
   519   514   519      1
   520   519   520      1
   521   519   522      1
   522   519   523      1
   523   520   521      1
   524   520   524      1
   525   520   525      1
   526   521   526      1
   527   526   527      1
   528   526   529      1
   529   526   530      1
   530   527   528      1
   531   527   531      1
   532   527   532      1
   533   528   533      1
   534   533   534      1
   535   533   536      1
   536   533   537      1
   537   534   535      1
   538   534   538      1
   539   534   539      1
   540   535   540      1
   541   540   541      1
   542   540   543      1
   543   540   544      1
   544   541   542      1
   545   541   545      1
   546   541   546      1
   547   542   547      1
   548   547   548      1
   549   547   550      1
   550   547   551      1
   551   548   549      1
   552   548   552      1
   553   548   553      1
   554   549   554      1
   555   554   555      1
   556   554   557      1
   557   554   558      1
   558   555   556      1
   559   555   559      1
   560   555   560      1
   561   556   561      1
   562   561   562      1
   563   561   564      1
   564   561   565      1
   565   562   563      1
   566   562   566      1
   567   562   567      1
   568   563   568      1
   569   568   569      1
   570   568   571      1
   571   568   572      1
   572   569   570      1
   573   569   573      1
   574   569   574      1
   575   570   575      1
   576   575   576      1
   577   575   578      1
   578   575   579      1
   579   576   577      1
   580   576   580      1
   581   576   581      1
   582   577   582      1
   583   582   583      1
   584   582   585      1
   585   582   586      1
   586   583   584      1
   587   583   587      1
   588   583   588      1
   589   584   589      1
   590   589   590      1
   591   589   592      1
   592   589   593      1
   593   590   591      1
   594   590   594      1
   595   590   595      1
   596   591   596      1
   597   596   597      1
   598   596   599      1
   599   596   600      1
   600   597   598      1
   601   597   601      1
   602   597   602      1
   603   598   603      1
   604   603   604      1
   605   603   606      1
   606   603   607      1
   607   604   605      1
   608   604   608      1
   609   604   609      1
   610   605   610      1
   611   610   611      1
   612   610   613      1
   613   610   614      1
   614   611   612      1
   615   611   615      1
   616   611   616      1
   617   612   617      1
   618   617   618      1
   619   617   620      1
   620   617   621      1
   621   618   619      1
   622   618   622      1
   623   618   623      1
   624   619   624      1
   625   624   625      1
   626   624   627      1
   627   624   628      1
   628   625   626      1
   629   625   629      1
   630   625   630      1
   631   626   631      1
   632   631   632      1
   633   631   634      1
   634   631   635      1
   635   632   633      1
   636   632   636      1
   637   632   637      1
   638   633   638      1
   639   638   639      1
   640   638   641      1
   641   638   642      1
   642   639   640      1
   643   639   643      1
   644   639   644      1
   645   640   645      1
   646   645   646      1
   647   645   648      1
   648   645   649      1
   649   646   647      1
   650   646   650      1
   651   646   651      1
   652   647   652      1
   653   652   653      1
   654   652   655      1
   655   652   656      1
   656   653   654      1
   657   653   657      1
   658   653   658      1
   659   654   659      1
   660   659   660      1
   661   659   662      1
   662   659   663      1
   663   660   661      1
   664   660   664      1
   665   660   665      1
   666   661   666      1
   667   666   667      1
   668   666   669      1
   669   666   670      1
   670   667   668      1
   671   667   671      1
   672   667   672      1
   673   668   673      1
   674   673   674      1
   675   673   676      1
   676   673   677      1
   677   674   675      1
   678   674   678      1
   679   674   679      1
   680   675   680      1
   681   680   681      1
   682   680   683      1
   683   680   684      1
   684   681   682      1
   685   681   685      1
   686   681   686      1
   687   682   687      1
   688   687   688      1
   689   687   690      1
   690   687   691      1
   691   688   689      1
   692   688   692      1
   693   688   693      1
   694   689   694      1
   695   694   695      1
   696   694   697      1
   697   694   698      1
   698   695   696      1
   699   695   699      1
   700   695   700      1
   701   696   701      1
   702   701   702      1
   703   701   704      1
   704   701   705      1
   705   702   703      1
   706   702   706      1
   707   702   707      1
   708   703   708      1
   709   708   709      1
   710   708   711      1
   711   708   712      1
   712   709   710      1
   713   709   713      1
   714   709   714      1
   715   710   715      1
   716   715   716      1
   717   715   718      1
   718   715   719      1
   719   716   717      1
   720   716   720      1
   721   716   721      1
   722   717   722      1
   723   722   723      1
   724   722   725      1
   725   722   726      1
   726   723   724      1
   727   723   727      1
   728   723   728      1
   729   724   729      1
   730   729   730      1
   731   729   732      1
   732   729   733      1
   733   730   731      1
   734   730   734      1
   735   730   735      1
   736   731   736      1
   737   736   737      1
   738   736   739      1
   739   736   740      1
   740   737   738      1
   741   737   741      1
   742   737   742      1
   743   738   743      1
   744   743   744      1
   745   743   746      1
   746   743   747      1
   747   744   745      1
   748   744   748      1
   749   744   749      1
   750   745   750      1
   751   750   751      1
   752   750   753      1
   753   750   754      1
   754   751   752      1
   755   751   755      1
   756   751   756      1
   757   752   757      1
   758   757   758      1
   759   757   760      1
   760   757   761      1
   761   758   759      1
   762   758   762      1
   763   758   763      1
   764   759   764      1
   765   764   765      1
   766   764   767      1
   767   764   768      1
   768   765   766      1
   769   765   769      1
   770   765   770      1
   771   766   771      1
   772   771   772      1
   773   771   774      1
   774   771   775      1
   775   772   773      1
   776   772   776      1
   777   772   777      1
   778   773   778      1
   779   778   779      1
   780   778   781      1
   781   778   782      1
   782   779   780      1
   783   779   783      1
   784   779   784      1
   785   780   785      1
   786   785   786      1
   787   785   788      1
   788   785   789      1
   789   786   787      1
   790   786   790      1
   791   786   791      1
   792   787   792      1
   793   792   793      1
   794   792   795      1
   795   792   796      1
   796   793   794      1
   797   793   797      1
   798   793   798      1
   799   794   799      1
   800   799   800      1
   801   799   802      1
   802   799   803      1
   803   800   801      1
   804   800   804      1
   805   800   805      1
   806   801   806      1
   807   806   807      1
   808   806   809      1
   809   806   810      1
   810   807   808      1
   811   807   811      1
   812   807   812      1
   813   808   813      1
   814   813   814      1
   815   813   816      1
   816   813   817      1
   817   814   815      1
   818   814   818      1
   819   814   819      1
   820   815   820      1
   821   820   821      1
   822   820   823      1
   823   820   824      1
   824   821   822      1
   825   821   825      1
   826   821   826      1
   827   822   827      1
   828   827   828      1
   829   827   830      1
   830   827   831      1
   831   828   829      1
   832   828   832      1
   833   828   833      1
   834   829   834      1
   835   834   835      1
   836   834   837      1
   837   834   838      1
   838   835   836      1
   839   835   839      1
   840   835   840      1
   841   836   841      1
   842   841   842      1
   843   841   844      1
   844   841   845      1
   845   842   843      1
   846   842   846      1
   847   842   847      1
   848   843   848      1
   849   848   849      1
   850   848   851      1
   851   848   852      1
   852   849   850      1
   853   849   853      1
   854   849   854      1
   855   850   855      1
   856   855   856      1
   857   855   858      1
   858   855   859      1
   859   856   857      1
   860   856   860      1
   861   856   861      1
   862   857   862      1
   863   862   863      1
   864   862   865      1
   865   862   866      1
   866   863   864      1
   867   863   867      1
   868   863   868      1
   869   864   869      1
   870   869   870      1
   871   869   872      1
   872   869   873      1
   873   870   871      1
   874   870   874      1
   875   870   875      1
   876   871   876      1
   877   876   877      1
   878   876   879      1
   879   876   880      1
   880   877   878      1
   881   877   881      1
   882   877   882      1
   883   878   883      1
   884   883   884      1
   885   883   886      1
   886   883   887      1
   887   884   885      1
   888   884   888      1
   889   884   889      1
   890   885   890      1
   891   890   891      1
   892   890   893      1
   893   890   894      1
   894   891   892      1
   895   891   895      1
   896   891   896      1
   897   892   897      1
   898   897   898      1
   899   897   900      1
   900   897   901      1
   901   898   899      1
   902   898   902      1
   903   898   903      1
   904   899   904      1
   905   904   905      1
   906   904   907      1
   907   904   908      1
   908   905   906      1
   909   905   909      1
   910   905   910      1
   911   906   911      1
   912   911   912      1
   913   911   914      1
   914   911   915      1
   915   912   913      1
   916   912   916      1
   917   912   917      1
   918   913   918      1
   919   918   919      1
   920   918   921      1
   921   918   922      1
   922   919   920      1
   923   919   923      1
   924   919   924      1
   925   920   925      1
   926   925   926      1
   927   925   928      1
   928   925   929      1
   929   926   927      1
   930   926   930      1
   931   926   931      1
   932   927   932      1
   933   932   933      1
   934   932   935      1
   935   932   936      1
   936   933   934      1
   937   933   937      1
   938   933   938      1
   939   934   939      1
   940   939   940      1
   941   939   942      1
   942   939   943      1
   943   940   941      1
   944   940   944      1
   945   940   945      1
   946   941   946      1
   947   946   947      1
   948   946   949      1
   949   946   950      1
   950   947   948      1
   951   947   951      1
   952   947   952      1
   953   948   953      1
   954   953   954      1
   955   953   956      1
   956   953   957      1
   957   954   955      1
   958   954   958      1
   959   954   959      1
   960   955   960      1
   961   960   961      1
   962   960   963      1
   963   960   964      1
   964   961   962      1
   965   961   965      1
   966   961   966      1
   967   962   967      1
   968   967   968      1
   969   967   970      1
   970   967   971      1
   971   968   969      1
   972   968   972      1
   973   968   973      1
   974   969   974      1
   975   974   975      1
   976   974   977      1
   977   974   978      1
   978   975   976      1
   979   975   979      1
   980   975   980      1
   981   976   981      1
   982   981   982      1
   983   981   984      1
   984   981   985      1
   985   982   983      1
   986   982   986      1
   987   982   987      1
   988   983   988      1
   989   988   989      1
   990   988   991      1
   991   988   992      1
   992   989   990      1
   993   989   993      1
   994   989   994      1
   995   990   995      1
   996   995   996      1
   997   995   998      1
   998   995   999      1
   999   996   997      1
  1000   996  1000      1
  1001   996  1001      1
  1002   997  1002      1
  1003  1002  1003      1
  1004  1002  1005      1
  1005  1002  1006      1
  1006  1003  1004      1
  1007  1003  1007      1
  1008  1003  1008      1
  1009  1004  1009      1
  1010  1009  1010      1
  1011  1009  1012      1
  1012  1009  1013      1
  1013  1010  1011      1
  1014  1010  1014      1
  1015  1010  1015      1
  1016  1011  1016      1
