###
### Created by PolyChef-cpp17 on Mon May 12 10:39:09 2025
###

@<TRIPOS>MOLECULE
NO_INFO
919 918 1 0 0
SMALL
USER_CHARGES


@<TRIPOS>ATOM
      1 C         264.5280  140.8207   31.5400 C.3       0      M_A    0.0000
      2 C         264.1282  140.4503   30.1148 C.3       0      M_A    0.0000
      3 O         263.1014  139.4586   30.1248 O.3       0      M_A    0.0000
      4 H         264.5556  139.9362   32.1853 H         0      M_A    0.0000
      5 H         263.7795  141.5076   31.9511 H         0      M_A    0.0000
      6 H         264.9808  140.0348   29.5633 H         0      M_A    0.0000
      7 H         263.8120  141.3478   29.5640 H         0      M_A    0.0000
      8 C         262.5461  139.3020   31.4147 C.3       1      M_A    0.0000
      9 C         261.5452  140.4048   31.7467 C.3       1      M_A    0.0000
     10 O         260.2816  139.8434   32.1018 O.3       1      M_A    0.0000
     11 H         262.0823  138.3125   31.4864 H         1      M_A    0.0000
     12 H         263.3661  139.3371   32.1411 H         1      M_A    0.0000
     13 H         261.3822  141.0603   30.8821 H         1      M_A    0.0000
     14 H         261.9382  141.0449   32.5497 H         1      M_A    0.0000
     15 C         260.2635  139.4219   33.4504 C.3       2      M_A    0.0000
     16 C         258.9272  138.7959   33.8385 C.3       2      M_A    0.0000
     17 O         259.0071  137.3716   33.7835 O.3       2      M_A    0.0000
     18 H         261.0906  138.7236   33.6177 H         2      M_A    0.0000
     19 H         260.4395  140.3011   34.0807 H         2      M_A    0.0000
     20 H         258.1328  139.1072   33.1487 H         2      M_A    0.0000
     21 H         258.6221  139.1410   34.8368 H         2      M_A    0.0000
     22 C         257.7281  136.7869   33.6454 C.3       3      M_A    0.0000
     23 C         257.8094  135.3064   33.2852 C.3       3      M_A    0.0000
     24 O         257.0952  134.5195   34.2384 O.3       3      M_A    0.0000
     25 H         257.1642  136.9378   34.5721 H         3      M_A    0.0000
     26 H         257.1994  137.3178   32.8455 H         3      M_A    0.0000
     27 H         258.8501  134.9588   33.2860 H         3      M_A    0.0000
     28 H         257.4298  135.1422   32.2664 H         3      M_A    0.0000
     29 C         257.6073  133.2044   34.3109 C.3       4      M_A    0.0000
     30 C         256.7094  132.2831   35.1313 C.3       4      M_A    0.0000
     31 O         256.9329  130.9190   34.7749 O.3       4      M_A    0.0000
     32 H         257.7469  132.8188   33.2954 H         4      M_A    0.0000
     33 H         258.5940  133.2527   34.7856 H         4      M_A    0.0000
     34 H         255.6501  132.5014   34.9473 H         4      M_A    0.0000
     35 H         256.8765  132.4483   36.2055 H         4      M_A    0.0000
     36 C         255.9882  130.0635   35.3852 C.3       5      M_A    0.0000
     37 C         256.5735  128.6884   35.6930 C.3       5      M_A    0.0000
     38 O         256.3703  128.3539   37.0658 O.3       5      M_A    0.0000
     39 H         255.6062  130.5426   36.2929 H         5      M_A    0.0000
     40 H         255.1461  129.9437   34.6940 H         5      M_A    0.0000
     41 H         257.6548  128.6715   35.5074 H         5      M_A    0.0000
     42 H         256.1342  127.9313   35.0277 H         5      M_A    0.0000
     43 C         256.5655  126.9734   37.2962 C.3       6      M_A    0.0000
     44 C         257.8972  126.4808   36.7375 C.3       6      M_A    0.0000
     45 O         258.3487  125.3340   37.4579 O.3       6      M_A    0.0000
     46 H         256.4906  126.7763   38.3709 H         6      M_A    0.0000
     47 H         255.7514  126.4308   36.8021 H         6      M_A    0.0000
     48 H         258.6714  127.2527   36.8301 H         6      M_A    0.0000
     49 H         257.8021  126.2663   35.6633 H         6      M_A    0.0000
     50 C         257.6355  124.1734   37.0822 C.3       7      M_A    0.0000
     51 C         258.1043  122.9388   37.8466 C.3       7      M_A    0.0000
     52 O         256.9988  122.2887   38.4735 O.3       7      M_A    0.0000
     53 H         256.5647  124.3479   37.2316 H         7      M_A    0.0000
     54 H         257.7983  124.0100   36.0107 H         7      M_A    0.0000
     55 H         258.8153  123.2125   38.6361 H         7      M_A    0.0000
     56 H         258.6400  122.2555   37.1720 H         7      M_A    0.0000
     57 C         257.3830  121.6651   39.6820 C.3       8      M_A    0.0000
     58 C         256.7826  120.2696   39.8241 C.3       8      M_A    0.0000
     59 O         257.7450  119.3631   40.3624 O.3       8      M_A    0.0000
     60 H         258.4764  121.6323   39.7353 H         8      M_A    0.0000
     61 H         257.0293  122.2893   40.5106 H         8      M_A    0.0000
     62 H         256.4697  119.8757   38.8490 H         8      M_A    0.0000
     63 H         255.8771  120.3077   40.4467 H         8      M_A    0.0000
     64 C         257.4913  118.0352   39.9514 C.3       9      M_A    0.0000
     65 C         257.8203  117.8176   38.4774 C.3       9      M_A    0.0000
     66 O         257.5931  116.4572   38.1094 O.3       9      M_A    0.0000
     67 H         258.0594  117.3491   40.5886 H         9      M_A    0.0000
     68 H         256.4264  117.8306   40.1109 H         9      M_A    0.0000
     69 H         258.8749  118.0414   38.2734 H         9      M_A    0.0000
     70 H         257.2323  118.5046   37.8519 H         9      M_A    0.0000
     71 C         256.3185  116.2857   37.5240 C.3      10      M_A    0.0000
     72 C         255.4501  115.3114   38.3145 C.3      10      M_A    0.0000
     73 O         254.0687  115.5211   38.0215 O.3      10      M_A    0.0000
     74 H         255.8329  117.2631   37.4323 H        10      M_A    0.0000
     75 H         256.4629  115.8910   36.5118 H        10      M_A    0.0000
     76 H         255.5823  115.4546   39.3942 H        10      M_A    0.0000
     77 H         255.7513  114.2756   38.1012 H        10      M_A    0.0000
     78 C         253.3116  114.3463   38.2301 C.3      11      M_A    0.0000
     79 C         252.2816  114.1236   37.1266 C.3      11      M_A    0.0000
     80 O         252.1240  112.7295   36.8631 O.3      11      M_A    0.0000
     81 H         253.9924  113.4925   38.3135 H        11      M_A    0.0000
     82 H         252.7886  114.4480   39.1879 H        11      M_A    0.0000
     83 H         252.5992  114.6009   36.1911 H        11      M_A    0.0000
     84 H         251.3243  114.5894   37.4013 H        11      M_A    0.0000
     85 C         250.9455  112.4723   36.1268 C.3      12      M_A    0.0000
     86 C         250.6094  110.9846   36.0826 C.3      12      M_A    0.0000
     87 O         249.2003  110.7863   36.1967 O.3      12      M_A    0.0000
     88 H         250.1216  113.0511   36.5576 H        12      M_A    0.0000
     89 H         251.1028  112.8308   35.1031 H        12      M_A    0.0000
     90 H         251.0848  110.4498   36.9144 H        12      M_A    0.0000
     91 H         251.0033  110.5338   35.1604 H        12      M_A    0.0000
     92 C         248.5501  110.9693   34.9554 C.3      13      M_A    0.0000
     93 C         247.8819  109.6890   34.4631 C.3      13      M_A    0.0000
     94 O         246.4776  109.8877   34.3012 O.3      13      M_A    0.0000
     95 H         247.8236  111.7835   35.0492 H        13      M_A    0.0000
     96 H         249.3037  111.2803   34.2229 H        13      M_A    0.0000
     97 H         248.0173  108.8732   35.1841 H        13      M_A    0.0000
     98 H         248.3490  109.3534   33.5259 H        13      M_A    0.0000
     99 C         246.0333  109.4349   33.0384 C.3      14      M_A    0.0000
    100 C         244.7066  108.6870   33.1308 C.3      14      M_A    0.0000
    101 O         243.8807  108.9922   32.0071 O.3      14      M_A    0.0000
    102 H         245.9586  110.2900   32.3582 H        14      M_A    0.0000
    103 H         246.7951  108.7572   32.6363 H        14      M_A    0.0000
    104 H         244.1541  108.9776   34.0331 H        14      M_A    0.0000
    105 H         244.8857  107.6053   33.2134 H        14      M_A    0.0000
    106 C         243.9797  107.9984   31.0074 C.3      15      M_A    0.0000
    107 C         243.0053  108.2407   29.8585 C.3      15      M_A    0.0000
    108 O         243.5788  107.8236   28.6195 O.3      15      M_A    0.0000
    109 H         245.0131  107.9558   30.6470 H        15      M_A    0.0000
    110 H         243.7497  107.0315   31.4695 H        15      M_A    0.0000
    111 H         242.7642  109.3071   29.7665 H        15      M_A    0.0000
    112 H         242.0540  107.7247   30.0526 H        15      M_A    0.0000
    113 C         242.5961  107.6945   27.6123 C.3      16      M_A    0.0000
    114 C         242.7311  106.3835   26.8433 C.3      16      M_A    0.0000
    115 O         241.5012  106.0527   26.1985 O.3      16      M_A    0.0000
    116 H         241.6040  107.7857   28.0671 H        16      M_A    0.0000
    117 H         242.7183  108.5297   26.9132 H        16      M_A    0.0000
    118 H         242.9807  105.5559   27.5190 H        16      M_A    0.0000
    119 H         243.5563  106.4510   26.1199 H        16      M_A    0.0000
    120 C         241.0448  107.1111   25.3809 C.3      17      M_A    0.0000
    121 C         240.8267  106.6684   23.9371 C.3      17      M_A    0.0000
    122 O         239.4369  106.4687   23.6794 O.3      17      M_A    0.0000
    123 H         240.1261  107.5241   25.8109 H        17      M_A    0.0000
    124 H         241.8036  107.9018   25.3985 H        17      M_A    0.0000
    125 H         241.3378  105.7186   23.7363 H        17      M_A    0.0000
    126 H         241.2600  107.4046   23.2449 H        17      M_A    0.0000
    127 C         239.2127  106.0489   22.3489 C.3      18      M_A    0.0000
    128 C         238.6156  104.6463   22.2823 C.3      18      M_A    0.0000
    129 O         237.1967  104.7127   22.1392 O.3      18      M_A    0.0000
    130 H         238.5665  106.7778   21.8482 H        18      M_A    0.0000
    131 H         240.1773  106.0486   21.8285 H        18      M_A    0.0000
    132 H         238.8272  104.0855   23.2012 H        18      M_A    0.0000
    133 H         239.0741  104.0772   21.4608 H        18      M_A    0.0000
    134 C         236.6689  103.4966   21.6499 C.3      19      M_A    0.0000
    135 C         235.8120  102.7825   22.6910 C.3      19      M_A    0.0000
    136 O         234.5079  102.5215   22.1723 O.3      19      M_A    0.0000
    137 H         236.0972  103.6967   20.7373 H        19      M_A    0.0000
    138 H         237.5103  102.8489   21.3785 H        19      M_A    0.0000
    139 H         235.6906  103.3998   23.5899 H        19      M_A    0.0000
    140 H         236.3054  101.8556   23.0174 H        19      M_A    0.0000
    141 C         233.5369  102.5044   23.1988 C.3      20      M_A    0.0000
    142 C         232.2531  101.8044   22.7630 C.3      20      M_A    0.0000
    143 O         232.1818  100.4942   23.3253 O.3      20      M_A    0.0000
    144 H         233.9647  102.0282   24.0875 H        20      M_A    0.0000
    145 H         233.3035  103.5431   23.4592 H        20      M_A    0.0000
    146 H         232.2160  101.6960   21.6718 H        20      M_A    0.0000
    147 H         231.3778  102.4079   23.0432 H        20      M_A    0.0000
    148 C         230.8727   99.9680   23.2463 C.3      21      M_A    0.0000
    149 C         230.2673  100.1408   21.8564 C.3      21      M_A    0.0000
    150 O         229.0382   99.4221   21.7530 O.3      21      M_A    0.0000
    151 H         230.8932   98.9131   23.5402 H        21      M_A    0.0000
    152 H         230.2502  100.5024   23.9731 H        21      M_A    0.0000
    153 H         230.9416   99.7515   21.0834 H        21      M_A    0.0000
    154 H         230.1263  101.2083   21.6340 H        21      M_A    0.0000
    155 C         228.2810   99.5186   22.9421 C.3      22      M_A    0.0000
    156 C         226.8511   99.9803   22.6764 C.3      22      M_A    0.0000
    157 O         225.9291   98.9175   22.9174 O.3      22      M_A    0.0000
    158 H         228.2951   98.5507   23.4543 H        22      M_A    0.0000
    159 H         228.7729  100.2472   23.5967 H        22      M_A    0.0000
    160 H         226.7271  100.2923   21.6318 H        22      M_A    0.0000
    161 H         226.6161  100.8608   23.2915 H        22      M_A    0.0000
    162 C         224.6942   99.1473   22.2701 C.3      23      M_A    0.0000
    163 C         223.7770   97.9296   22.3340 C.3      23      M_A    0.0000
    164 O         222.4081   98.3307   22.2792 O.3      23      M_A    0.0000
    165 H         224.2157  100.0264   22.7149 H        23      M_A    0.0000
    166 H         224.9026   99.3795   21.2194 H        23      M_A    0.0000
    167 H         223.9206   97.3788   23.2720 H        23      M_A    0.0000
    168 H         224.0209   97.2279   21.5235 H        23      M_A    0.0000
    169 C         221.9327   98.3672   20.9490 C.3      24      M_A    0.0000
    170 C         220.4083   98.3807   20.8842 C.3      24      M_A    0.0000
    171 O         219.9599   99.2227   19.8221 O.3      24      M_A    0.0000
    172 H         222.3577   99.2397   20.4414 H        24      M_A    0.0000
    173 H         222.3015   97.4724   20.4346 H        24      M_A    0.0000
    174 H         219.9792   98.7703   21.8158 H        24      M_A    0.0000
    175 H         220.0241   97.3566   20.7719 H        24      M_A    0.0000
    176 C         218.5580   99.3967   19.8568 C.3      25      M_A    0.0000
    177 C         217.9650   99.5595   18.4603 C.3      25      M_A    0.0000
    178 O         217.0100   98.5312   18.1991 O.3      25      M_A    0.0000
    179 H         218.1055   98.5487   20.3820 H        25      M_A    0.0000
    180 H         218.3448  100.2998   20.4400 H        25      M_A    0.0000
    181 H         218.7447   99.4867   17.6918 H        25      M_A    0.0000
    182 H         217.5173  100.5579   18.3522 H        25      M_A    0.0000
    183 C         215.6933   98.9673   18.4694 C.3      26      M_A    0.0000
    184 C         214.6489   98.1244   17.7435 C.3      26      M_A    0.0000
    185 O         213.6222   97.7133   18.6461 O.3      26      M_A    0.0000
    186 H         215.5281   98.9553   19.5520 H        26      M_A    0.0000
    187 H         215.6067  100.0066   18.1324 H        26      M_A    0.0000
    188 H         215.0999   97.2167   17.3235 H        26      M_A    0.0000
    189 H         214.2333   98.6844   16.8934 H        26      M_A    0.0000
    190 C         212.4507   97.3281   17.9561 C.3      27      M_A    0.0000
    191 C         212.1508   95.8410   18.1198 C.3      27      M_A    0.0000
    192 O         210.7418   95.6171   18.1686 O.3      27      M_A    0.0000
    193 H         211.6128   97.9411   18.3048 H        27      M_A    0.0000
    194 H         212.5997   97.5447   16.8921 H        27      M_A    0.0000
    195 H         212.5773   95.4550   19.0541 H        27      M_A    0.0000
    196 H         212.6189   95.2677   17.3067 H        27      M_A    0.0000
    197 C         210.0746   96.2891   17.1197 C.3      28      M_A    0.0000
    198 C         209.3319   95.3242   16.2003 C.3      28      M_A    0.0000
    199 O         207.9468   95.2734   16.5418 O.3      28      M_A    0.0000
    200 H         209.3924   97.0314   17.5478 H        28      M_A    0.0000
    201 H         210.8268   96.8294   16.5335 H        28      M_A    0.0000
    202 H         209.7310   94.3065   16.2945 H        28      M_A    0.0000
    203 H         209.4743   95.6155   15.1497 H        28      M_A    0.0000
    204 C         207.2978   94.1885   15.9105 C.3      29      M_A    0.0000
    205 C         206.0967   93.6935   16.7108 C.3      29      M_A    0.0000
    206 O         204.9456   93.5891   15.8729 O.3      29      M_A    0.0000
    207 H         207.0027   94.4880   14.8992 H        29      M_A    0.0000
    208 H         208.0220   93.3713   15.8161 H        29      M_A    0.0000
    209 H         205.8507   94.3907   17.5214 H        29      M_A    0.0000
    210 H         206.3305   92.7322   17.1907 H        29      M_A    0.0000
    211 C         204.1068   92.5259   16.2766 C.3      30      M_A    0.0000
    212 C         203.9157   92.4882   17.7899 C.3      30      M_A    0.0000
    213 O         202.5288   92.5569   18.1211 O.3      30      M_A    0.0000
    214 H         203.1456   92.6128   15.7588 H        30      M_A    0.0000
    215 H         204.5731   91.5878   15.9546 H        30      M_A    0.0000
    216 H         204.4106   93.3420   18.2695 H        30      M_A    0.0000
    217 H         204.3827   91.5854   18.2091 H        30      M_A    0.0000
    218 C         201.9078   91.2922   18.0119 C.3      31      M_A    0.0000
    219 C         200.5931   91.2296   18.7838 C.3      31      M_A    0.0000
    220 O         199.4838   91.2503   17.8856 O.3      31      M_A    0.0000
    221 H         201.7557   91.0591   16.9526 H        31      M_A    0.0000
    222 H         202.5951   90.5428   18.4208 H        31      M_A    0.0000
    223 H         200.4897   92.0924   19.4536 H        31      M_A    0.0000
    224 H         200.5718   90.3367   19.4251 H        31      M_A    0.0000
    225 C         199.3341   92.5173   17.2778 C.3      32      M_A    0.0000
    226 C         197.8678   92.8840   17.0686 C.3      32      M_A    0.0000
    227 O         197.2525   93.2161   18.3132 O.3      32      M_A    0.0000
    228 H         199.8465   93.2690   17.8876 H        32      M_A    0.0000
    229 H         199.8339   92.4845   16.3029 H        32      M_A    0.0000
    230 H         197.3097   92.0419   16.6406 H        32      M_A    0.0000
    231 H         197.7823   93.7095   16.3473 H        32      M_A    0.0000
    232 C         196.1747   92.3500   18.6047 C.3      33      M_A    0.0000
    233 C         194.8817   93.1134   18.8757 C.3      33      M_A    0.0000
    234 O         193.7617   92.4055   18.3443 O.3      33      M_A    0.0000
    235 H         196.0505   91.6431   17.7774 H        33      M_A    0.0000
    236 H         196.4390   91.7720   19.4977 H        33      M_A    0.0000
    237 H         194.9020   94.1015   18.3992 H        33      M_A    0.0000
    238 H         194.7660   93.2931   19.9543 H        33      M_A    0.0000
    239 C         192.6163   92.5651   19.1563 C.3      34      M_A    0.0000
    240 C         191.3501   92.0646   18.4676 C.3      34      M_A    0.0000
    241 O         190.6754   91.1132   19.2909 O.3      34      M_A    0.0000
    242 H         192.7787   92.0492   20.1086 H        34      M_A    0.0000
    243 H         192.5032   93.6335   19.3732 H        34      M_A    0.0000
    244 H         191.5893   91.5672   17.5194 H        34      M_A    0.0000
    245 H         190.6951   92.9110   18.2157 H        34      M_A    0.0000
    246 C         189.6044   90.5006   18.6020 C.3      35      M_A    0.0000
    247 C         188.3289   90.4655   19.4387 C.3      35      M_A    0.0000
    248 O         187.2281   90.9887   18.6954 O.3      35      M_A    0.0000
    249 H         189.4415   91.0260   17.6549 H        35      M_A    0.0000
    250 H         189.9008   89.4726   18.3641 H        35      M_A    0.0000
    251 H         188.4354   91.0778   20.3428 H        35      M_A    0.0000
    252 H         188.1283   89.4403   19.7820 H        35      M_A    0.0000
    253 C         186.3205   91.6776   19.5311 C.3      36      M_A    0.0000
    254 C         185.0891   92.1577   18.7687 C.3      36      M_A    0.0000
    255 O         183.9080   91.5500   19.2918 O.3      36      M_A    0.0000
    256 H         186.0396   91.0273   20.3663 H        36      M_A    0.0000
    257 H         186.8404   92.5474   19.9486 H        36      M_A    0.0000
    258 H         185.1547   91.8881   17.7072 H        36      M_A    0.0000
    259 H         185.0240   93.2547   18.8051 H        36      M_A    0.0000
    260 C         182.7807   91.8346   18.4887 C.3      37      M_A    0.0000
    261 C         181.5188   92.0382   19.3220 C.3      37      M_A    0.0000
    262 O         180.8663   93.2532   18.9535 O.3      37      M_A    0.0000
    263 H         182.9938   92.7147   17.8727 H        37      M_A    0.0000
    264 H         182.6259   90.9862   17.8123 H        37      M_A    0.0000
    265 H         181.7604   92.1060   20.3901 H        37      M_A    0.0000
    266 H         180.8476   91.1744   19.2115 H        37      M_A    0.0000
    267 C         180.0862   93.7640   20.0153 C.3      38      M_A    0.0000
    268 C         179.7118   95.2275   19.8004 C.3      38      M_A    0.0000
    269 O         178.4537   95.5170   20.4097 O.3      38      M_A    0.0000
    270 H         179.1934   93.1410   20.1347 H        38      M_A    0.0000
    271 H         180.6744   93.6801   20.9363 H        38      M_A    0.0000
    272 H         179.6194   95.4561   18.7313 H        38      M_A    0.0000
    273 H         180.5045   95.8830   20.1888 H        38      M_A    0.0000
    274 C         178.4337   96.8175   20.9621 C.3      39      M_A    0.0000
    275 C         178.1931   97.8880   19.9018 C.3      39      M_A    0.0000
    276 O         177.2213   98.8308   20.3540 O.3      39      M_A    0.0000
    277 H         177.6713   96.8604   21.7473 H        39      M_A    0.0000
    278 H         179.4062   96.9981   21.4341 H        39      M_A    0.0000
    279 H         177.8123   97.4430   18.9740 H        39      M_A    0.0000
    280 H         179.1395   98.3831   19.6409 H        39      M_A    0.0000
    281 C         177.2330  100.0038   19.5660 C.3      40      M_A    0.0000
    282 C         175.8812  100.7115   19.5698 C.3      40      M_A    0.0000
    283 O         175.9021  101.8258   20.4618 O.3      40      M_A    0.0000
    284 H         178.0274  100.6671   19.9243 H        40      M_A    0.0000
    285 H         177.4798   99.7164   18.5375 H        40      M_A    0.0000
    286 H         175.0853  100.0357   19.9069 H        40      M_A    0.0000
    287 H         175.6119  101.0209   18.5497 H        40      M_A    0.0000
    288 C         174.8840  102.7555   20.1521 C.3      41      M_A    0.0000
    289 C         173.8562  102.8761   21.2734 C.3      41      M_A    0.0000
    290 O         174.2207  103.9199   22.1763 O.3      41      M_A    0.0000
    291 H         175.3414  103.7253   19.9292 H        41      M_A    0.0000
    292 H         174.3780  102.4108   19.2430 H        41      M_A    0.0000
    293 H         173.7965  101.9464   21.8529 H        41      M_A    0.0000
    294 H         172.8539  103.0427   20.8532 H        41      M_A    0.0000
    295 C         173.7148  103.6815   23.4740 C.3      42      M_A    0.0000
    296 C         174.2555  104.6796   24.4935 C.3      42      M_A    0.0000
    297 O         173.1991  105.1803   25.3127 O.3      42      M_A    0.0000
    298 H         172.6203  103.7043   23.4406 H        42      M_A    0.0000
    299 H         174.0162  102.6710   23.7728 H        42      M_A    0.0000
    300 H         174.7191  105.5392   23.9935 H        42      M_A    0.0000
    301 H         175.0448  104.2126   25.1000 H        42      M_A    0.0000
    302 C         171.9433  105.0400   24.6802 C.3      43      M_A    0.0000
    303 C         170.7871  105.1394   25.6709 C.3      43      M_A    0.0000
    304 O         170.1691  106.4238   25.5918 O.3      43      M_A    0.0000
    305 H         171.8541  105.7948   23.8916 H        43      M_A    0.0000
    306 H         171.9156  104.0548   24.2007 H        43      M_A    0.0000
    307 H         171.1406  105.0079   26.7012 H        43      M_A    0.0000
    308 H         170.0608  104.3343   25.4886 H        43      M_A    0.0000
    309 C         169.0036  106.4870   26.3883 C.3      44      M_A    0.0000
    310 C         168.5546  107.9241   26.6358 C.3      44      M_A    0.0000
    311 O         167.1514  108.0562   26.4089 O.3      44      M_A    0.0000
    312 H         168.2112  105.9022   25.9092 H        44      M_A    0.0000
    313 H         169.2278  106.0148   27.3516 H        44      M_A    0.0000
    314 H         169.0641  108.6174   25.9549 H        44      M_A    0.0000
    315 H         168.8261  108.2365   27.6544 H        44      M_A    0.0000
    316 C         166.6474  109.2522   26.9678 C.3      45      M_A    0.0000
    317 C         165.1227  109.3028   26.9362 C.3      45      M_A    0.0000
    318 O         164.5770  108.6722   28.0948 O.3      45      M_A    0.0000
    319 H         167.0253  109.3557   27.9906 H        45      M_A    0.0000
    320 H         167.0422  110.0903   26.3822 H        45      M_A    0.0000
    321 H         164.7305  108.7737   26.0587 H        45      M_A    0.0000
    322 H         164.7793  110.3436   26.8482 H        45      M_A    0.0000
    323 C         163.8464  107.5110   27.7560 C.3      46      M_A    0.0000
    324 C         162.9707  107.0270   28.9080 C.3      46      M_A    0.0000
    325 O         161.6198  106.8650   28.4759 O.3      46      M_A    0.0000
    326 H         163.2470  107.7141   26.8621 H        46      M_A    0.0000
    327 H         164.5648  106.7233   27.5014 H        46      M_A    0.0000
    328 H         162.9677  107.7530   29.7306 H        46      M_A    0.0000
    329 H         163.3727  106.0916   29.3232 H        46      M_A    0.0000
    330 C         160.7062  107.1648   29.5114 C.3      47      M_A    0.0000
    331 C         159.2893  106.7077   29.1771 C.3      47      M_A    0.0000
    332 O         158.6415  106.1941   30.3409 O.3      47      M_A    0.0000
    333 H         161.0592  106.7090   30.4426 H        47      M_A    0.0000
    334 H         160.7037  108.2515   29.6544 H        47      M_A    0.0000
    335 H         159.3019  105.9066   28.4276 H        47      M_A    0.0000
    336 H         158.7179  107.5361   28.7341 H        47      M_A    0.0000
    337 C         157.2612  106.4969   30.3405 C.3      48      M_A    0.0000
    338 C         156.6116  106.2138   28.9892 C.3      48      M_A    0.0000
    339 O         155.2822  105.7246   29.1656 O.3      48      M_A    0.0000
    340 H         156.7712  105.9319   31.1407 H        48      M_A    0.0000
    341 H         157.1499  107.5626   30.5711 H        48      M_A    0.0000
    342 H         157.1723  105.4496   28.4365 H        48      M_A    0.0000
    343 H         156.6252  107.1186   28.3647 H        48      M_A    0.0000
    344 C         154.4744  106.6584   29.8529 C.3      49      M_A    0.0000
    345 C         153.0178  106.2105   29.9298 C.3      49      M_A    0.0000
    346 O         152.4595  106.5396   31.2018 O.3      49      M_A    0.0000
    347 H         154.8905  106.8235   30.8524 H        49      M_A    0.0000
    348 H         154.5245  107.6101   29.3116 H        49      M_A    0.0000
    349 H         152.9342  105.1236   29.8057 H        49      M_A    0.0000
    350 H         152.4387  106.6603   29.1105 H        49      M_A    0.0000
    351 C         151.1077  106.9349   31.0867 C.3      50      M_A    0.0000
    352 C         150.3018  105.9773   30.2139 C.3      50      M_A    0.0000
    353 O         149.0084  105.7561   30.7760 O.3      50      M_A    0.0000
    354 H         150.6730  107.0175   32.0885 H        50      M_A    0.0000
    355 H         151.0857  107.9322   30.6326 H        50      M_A    0.0000
    356 H         150.7987  105.0019   30.1390 H        50      M_A    0.0000
    357 H         150.2308  106.3671   29.1883 H        50      M_A    0.0000
    358 C         148.2772  106.9607   30.8811 C.3      51      M_A    0.0000
    359 C         148.2890  107.5174   32.3016 C.3      51      M_A    0.0000
    360 O         148.1978  108.9419   32.2817 O.3      51      M_A    0.0000
    361 H         148.6814  107.6875   30.1683 H        51      M_A    0.0000
    362 H         147.2411  106.7525   30.5904 H        51      M_A    0.0000
    363 H         149.2206  107.2550   32.8184 H        51      M_A    0.0000
    364 H         147.4736  107.0727   32.8903 H        51      M_A    0.0000
    365 C         146.8611  109.3725   32.1248 C.3      52      M_A    0.0000
    366 C         146.6214  110.7419   32.7536 C.3      52      M_A    0.0000
    367 O         145.6868  111.4921   31.9780 O.3      52      M_A    0.0000
    368 H         146.6101  109.3777   31.0587 H        52      M_A    0.0000
    369 H         146.2109  108.6386   32.6147 H        52      M_A    0.0000
    370 H         147.5518  111.3217   32.7981 H        52      M_A    0.0000
    371 H         146.2788  110.6279   33.7922 H        52      M_A    0.0000
    372 C         144.6966  112.0854   32.7931 C.3      53      M_A    0.0000
    373 C         144.1422  113.3684   32.1810 C.3      53      M_A    0.0000
    374 O         142.7994  113.5892   32.6124 O.3      53      M_A    0.0000
    375 H         143.8991  111.3570   32.9740 H        53      M_A    0.0000
    376 H         145.1542  112.3229   33.7603 H        53      M_A    0.0000
    377 H         144.1295  113.3072   31.0856 H        53      M_A    0.0000
    378 H         144.7890  114.2205   32.4351 H        53      M_A    0.0000
    379 C         142.2038  114.6665   31.9186 C.3      54      M_A    0.0000
    380 C         141.1979  115.4204   32.7834 C.3      54      M_A    0.0000
    381 O         141.8491  116.4523   33.5244 O.3      54      M_A    0.0000
    382 H         142.9906  115.3352   31.5535 H        54      M_A    0.0000
    383 H         141.6839  114.2581   31.0444 H        54      M_A    0.0000
    384 H         140.7203  114.7479   33.5068 H        54      M_A    0.0000
    385 H         140.3892  115.8262   32.1586 H        54      M_A    0.0000
    386 C         141.4108  116.4799   34.8675 C.3      55      M_A    0.0000
    387 C         142.4227  117.1560   35.7879 C.3      55      M_A    0.0000
    388 O         141.9400  118.4308   36.2119 O.3      55      M_A    0.0000
    389 H         140.4373  116.9795   34.9155 H        55      M_A    0.0000
    390 H         141.2684  115.4443   35.1969 H        55      M_A    0.0000
    391 H         143.3755  117.3213   35.2696 H        55      M_A    0.0000
    392 H         142.6469  116.5074   36.6469 H        55      M_A    0.0000
    393 C         142.6633  118.9133   37.3258 C.3      56      M_A    0.0000
    394 C         142.3980  120.3934   37.5852 C.3      56      M_A    0.0000
    395 O         141.5559  120.5584   38.7261 O.3      56      M_A    0.0000
    396 H         142.4143  118.3073   38.2034 H        56      M_A    0.0000
    397 H         143.7310  118.7753   37.1198 H        56      M_A    0.0000
    398 H         141.8885  120.8565   36.7310 H        56      M_A    0.0000
    399 H         143.3479  120.9334   37.7080 H        56      M_A    0.0000
    400 C         141.8196  119.5787   39.7096 C.3      57      M_A    0.0000
    401 C         142.0385  120.1939   41.0887 C.3      57      M_A    0.0000
    402 O         140.9637  119.8543   41.9646 O.3      57      M_A    0.0000
    403 H         140.9959  118.8570   39.7250 H        57      M_A    0.0000
    404 H         142.7269  119.0397   39.4137 H        57      M_A    0.0000
    405 H         142.0796  121.2887   41.0281 H        57      M_A    0.0000
    406 H         143.0061  119.8710   41.4990 H        57      M_A    0.0000
    407 C         141.3356  119.9996   43.3201 C.3      58      M_A    0.0000
    408 C         140.5200  121.0783   44.0268 C.3      58      M_A    0.0000
    409 O         140.1022  120.6265   45.3149 O.3      58      M_A    0.0000
    410 H         141.2333  119.0327   43.8244 H        58      M_A    0.0000
    411 H         142.3950  120.2789   43.3509 H        58      M_A    0.0000
    412 H         139.6160  121.3242   43.4557 H        58      M_A    0.0000
    413 H         141.1022  122.0082   44.0986 H        58      M_A    0.0000
    414 C         139.6148  121.6927   46.1039 C.3      59      M_A    0.0000
    415 C         138.4023  121.2841   46.9352 C.3      59      M_A    0.0000
    416 O         138.8027  120.9079   48.2528 O.3      59      M_A    0.0000
    417 H         140.4241  122.0645   46.7414 H        59      M_A    0.0000
    418 H         139.3242  122.5060   45.4290 H        59      M_A    0.0000
    419 H         137.8922  120.4218   46.4881 H        59      M_A    0.0000
    420 H         137.6659  122.1003   46.9588 H        59      M_A    0.0000
    421 C         137.8581  121.3225   49.2186 C.3      60      M_A    0.0000
    422 C         136.5464  120.5510   49.1070 C.3      60      M_A    0.0000
    423 O         136.5622  119.4102   49.9649 O.3      60      M_A    0.0000
    424 H         138.2964  121.2147   50.2165 H        60      M_A    0.0000
    425 H         137.6575  122.3880   49.0581 H        60      M_A    0.0000
    426 H         136.3893  120.1899   48.0830 H        60      M_A    0.0000
    427 H         135.6973  121.2112   49.3352 H        60      M_A    0.0000
    428 C         135.3499  118.6883   49.8879 C.3      61      M_A    0.0000
    429 C         135.4339  117.3464   50.6093 C.3      61      M_A    0.0000
    430 O         135.1128  117.5003   51.9917 O.3      61      M_A    0.0000
    431 H         134.5405  119.3049   50.2931 H        61      M_A    0.0000
    432 H         135.1313  118.5085   48.8290 H        61      M_A    0.0000
    433 H         136.4484  116.9326   50.5518 H        61      M_A    0.0000
    434 H         134.7734  116.6130   50.1246 H        61      M_A    0.0000
    435 C         136.1281  118.1981   52.6839 C.3      62      M_A    0.0000
    436 C         135.8596  118.2630   54.1845 C.3      62      M_A    0.0000
    437 O         136.6077  117.2593   54.8707 O.3      62      M_A    0.0000
    438 H         137.0933  117.7243   52.4752 H        62      M_A    0.0000
    439 H         136.1670  119.2186   52.2862 H        62      M_A    0.0000
    440 H         134.7984  118.0875   54.4013 H        62      M_A    0.0000
    441 H         136.0912  119.2669   54.5684 H        62      M_A    0.0000
    442 C         136.7387  117.5609   56.2450 C.3      63      M_A    0.0000
    443 C         135.5570  117.0454   57.0611 C.3      63      M_A    0.0000
    444 O         135.9814  116.0293   57.9696 O.3      63      M_A    0.0000
    445 H         137.6837  117.1475   56.6131 H        63      M_A    0.0000
    446 H         136.7916  118.6509   56.3473 H        63      M_A    0.0000
    447 H         134.7922  116.6048   56.4094 H        63      M_A    0.0000
    448 H         135.0698  117.8769   57.5904 H        63      M_A    0.0000
    449 C         134.9780  115.7327   58.9193 C.3      64      M_A    0.0000
    450 C         135.3551  114.5462   59.8014 C.3      64      M_A    0.0000
    451 O         135.4937  114.9577   61.1614 O.3      64      M_A    0.0000
    452 H         134.7806  116.6260   59.5214 H        64      M_A    0.0000
    453 H         134.0586  115.4909   58.3739 H        64      M_A    0.0000
    454 H         136.3143  114.1144   59.4896 H        64      M_A    0.0000
    455 H         134.6085  113.7455   59.7000 H        64      M_A    0.0000
    456 C         136.0193  113.9207   61.9645 C.3      65      M_A    0.0000
    457 C         135.0338  113.4710   63.0391 C.3      65      M_A    0.0000
    458 O         134.8244  112.0607   62.9675 O.3      65      M_A    0.0000
    459 H         136.3119  113.0839   61.3213 H        65      M_A    0.0000
    460 H         136.9263  114.2978   62.4508 H        65      M_A    0.0000
    461 H         134.0585  113.9551   62.9046 H        65      M_A    0.0000
    462 H         135.3933  113.7719   64.0336 H        65      M_A    0.0000
    463 C         135.9747  111.3459   63.3709 C.3      66      M_A    0.0000
    464 C         135.6339  110.1918   64.3091 C.3      66      M_A    0.0000
    465 O         135.3595  109.0055   63.5640 O.3      66      M_A    0.0000
    466 H         136.5039  110.9889   62.4810 H        66      M_A    0.0000
    467 H         136.6389  112.0436   63.8938 H        66      M_A    0.0000
    468 H         134.7407  110.4201   64.9039 H        66      M_A    0.0000
    469 H         136.4509  110.0328   65.0275 H        66      M_A    0.0000
    470 C         134.2956  108.2709   64.1345 C.3      67      M_A    0.0000
    471 C         132.9933  108.4512   63.3602 C.3      67      M_A    0.0000
    472 O         132.1311  107.3317   63.5633 O.3      67      M_A    0.0000
    473 H         134.5798  107.2146   64.1895 H        67      M_A    0.0000
    474 H         134.1508  108.6290   65.1602 H        67      M_A    0.0000
    475 H         133.1846  108.5273   62.2825 H        67      M_A    0.0000
    476 H         132.5041  109.3911   63.6540 H        67      M_A    0.0000
    477 C         131.6798  107.2623   64.9006 C.3      68      M_A    0.0000
    478 C         130.4878  106.3226   65.0563 C.3      68      M_A    0.0000
    479 O         130.7906  105.2794   65.9825 O.3      68      M_A    0.0000
    480 H         132.5119  106.9552   65.5431 H        68      M_A    0.0000
    481 H         131.3789  108.2706   65.2074 H        68      M_A    0.0000
    482 H         130.2337  105.8491   64.0997 H        68      M_A    0.0000
    483 H         129.5973  106.8876   65.3673 H        68      M_A    0.0000
    484 C         129.8404  104.2356   65.9144 C.3      69      M_A    0.0000
    485 C         129.5989  103.5894   67.2754 C.3      69      M_A    0.0000
    486 O         128.1999  103.4927   67.5423 O.3      69      M_A    0.0000
    487 H         128.9090  104.6272   65.4919 H        69      M_A    0.0000
    488 H         130.2237  103.4755   65.2241 H        69      M_A    0.0000
    489 H         130.0461  104.1878   68.0790 H        69      M_A    0.0000
    490 H         130.0834  102.6033   67.3187 H        69      M_A    0.0000
    491 C         127.7051  104.6725   68.1424 C.3      70      M_A    0.0000
    492 C         126.5590  104.3881   69.1086 C.3      70      M_A    0.0000
    493 O         127.0184  104.4400   70.4592 O.3      70      M_A    0.0000
    494 H         128.5285  105.1892   68.6470 H        70      M_A    0.0000
    495 H         127.3411  105.3295   67.3442 H        70      M_A    0.0000
    496 H         126.1437  103.3864   68.9411 H        70      M_A    0.0000
    497 H         125.7351  105.0962   68.9390 H        70      M_A    0.0000
    498 C         126.0236  104.0000   71.3612 C.3      71      M_A    0.0000
    499 C         126.6233  103.4026   72.6307 C.3      71      M_A    0.0000
    500 O         126.6365  104.3694   73.6810 O.3      71      M_A    0.0000
    501 H         125.3574  104.8373   71.5948 H        71      M_A    0.0000
    502 H         125.4263  103.2323   70.8560 H        71      M_A    0.0000
    503 H         127.6601  103.0852   72.4634 H        71      M_A    0.0000
    504 H         126.0679  102.5004   72.9246 H        71      M_A    0.0000
    505 C         127.8952  104.4205   74.3211 C.3      72      M_A    0.0000
    506 C         127.8149  105.0825   75.6935 C.3      72      M_A    0.0000
    507 O         128.2324  104.1740   76.7125 O.3      72      M_A    0.0000
    508 H         128.3002  103.4056   74.3948 H        72      M_A    0.0000
    509 H         128.5729  105.0025   73.6859 H        72      M_A    0.0000
    510 H         126.7856  105.3843   75.9241 H        72      M_A    0.0000
    511 H         128.4169  106.0025   75.7069 H        72      M_A    0.0000
    512 C         128.5898  104.8551   77.8979 C.3      73      M_A    0.0000
    513 C         127.5206  105.8539   78.3307 C.3      73      M_A    0.0000
    514 O         127.3791  105.8515   79.7512 O.3      73      M_A    0.0000
    515 H         128.7872  104.1209   78.6862 H        73      M_A    0.0000
    516 H         129.5238  105.3960   77.7073 H        73      M_A    0.0000
    517 H         126.5443  105.5939   77.9029 H        73      M_A    0.0000
    518 H         127.7648  106.8580   77.9549 H        73      M_A    0.0000
    519 C         127.3227  107.1656   80.2676 C.3      74      M_A    0.0000
    520 C         126.6674  107.2137   81.6448 C.3      74      M_A    0.0000
    521 O         127.6500  107.0791   82.6715 O.3      74      M_A    0.0000
    522 H         128.3353  107.5818   80.2970 H        74      M_A    0.0000
    523 H         126.7336  107.7756   79.5732 H        74      M_A    0.0000
    524 H         125.9499  106.3926   81.7670 H        74      M_A    0.0000
    525 H         126.0938  108.1446   81.7598 H        74      M_A    0.0000
    526 C         127.2315  106.1736   83.6724 C.3      75      M_A    0.0000
    527 C         126.6266  106.8886   84.8769 C.3      75      M_A    0.0000
    528 O         125.5005  106.1658   85.3744 O.3      75      M_A    0.0000
    529 H         126.5212  105.4627   83.2369 H        75      M_A    0.0000
    530 H         128.1093  105.6055   84.0013 H        75      M_A    0.0000
    531 H         126.2780  107.8923   84.6034 H        75      M_A    0.0000
    532 H         127.3885  107.0284   85.6573 H        75      M_A    0.0000
    533 C         125.8251  104.8145   85.6302 C.3      76      M_A    0.0000
    534 C         124.8622  104.1708   86.6235 C.3      76      M_A    0.0000
    535 O         124.5562  102.8334   86.2289 O.3      76      M_A    0.0000
    536 H         125.8413  104.2653   84.6827 H        76      M_A    0.0000
    537 H         126.8380  104.7845   86.0480 H        76      M_A    0.0000
    538 H         123.9162  104.7246   86.6683 H        76      M_A    0.0000
    539 H         125.2863  104.2014   87.6374 H        76      M_A    0.0000
    540 C         123.5291  102.2810   87.0268 C.3      77      M_A    0.0000
    541 C         123.7974  100.8205   87.3778 C.3      77      M_A    0.0000
    542 O         123.3173  100.5246   88.6893 O.3      77      M_A    0.0000
    543 H         123.4117  102.8894   87.9299 H        77      M_A    0.0000
    544 H         122.5924  102.3433   86.4611 H        77      M_A    0.0000
    545 H         124.8731  100.6050   87.3654 H        77      M_A    0.0000
    546 H         123.3415  100.1597   86.6266 H        77      M_A    0.0000
    547 C         122.1427   99.7402   88.6453 C.3      78      M_A    0.0000
    548 C         121.6750   99.3282   90.0380 C.3      78      M_A    0.0000
    549 O         120.2513   99.3867   90.1255 O.3      78      M_A    0.0000
    550 H         121.3620  100.2952   88.1142 H        78      M_A    0.0000
    551 H         122.3618   98.8376   88.0634 H        78      M_A    0.0000
    552 H         122.0791  100.0025   90.8033 H        78      M_A    0.0000
    553 H         122.0496   98.3238   90.2825 H        78      M_A    0.0000
    554 C         119.6885   98.0985   90.2694 C.3      79      M_A    0.0000
    555 C         118.1787   98.1522   90.4831 C.3      79      M_A    0.0000
    556 O         117.5438   97.0417   89.8496 O.3      79      M_A    0.0000
    557 H         119.9421   97.4975   89.3897 H        79      M_A    0.0000
    558 H         120.1533   97.6232   91.1408 H        79      M_A    0.0000
    559 H         117.7530   99.0655   90.0491 H        79      M_A    0.0000
    560 H         117.9485   98.1848   91.5578 H        79      M_A    0.0000
    561 C         116.6809   96.3627   90.7391 C.3      80      M_A    0.0000
    562 C         115.8760   95.2723   90.0381 C.3      80      M_A    0.0000
    563 O         116.2257   93.9858   90.5484 O.3      80      M_A    0.0000
    564 H         117.2711   95.9498   91.5642 H        80      M_A    0.0000
    565 H         115.9875   97.0980   91.1631 H        80      M_A    0.0000
    566 H         116.0805   95.2649   88.9602 H        80      M_A    0.0000
    567 H         114.7992   95.4663   90.1467 H        80      M_A    0.0000
    568 C         116.0002   92.9710   89.5912 C.3      81      M_A    0.0000
    569 C         115.2009   91.8059   90.1672 C.3      81      M_A    0.0000
    570 O         114.1805   91.3996   89.2552 O.3      81      M_A    0.0000
    571 H         115.4951   93.4055   88.7220 H        81      M_A    0.0000
    572 H         116.9759   92.6004   89.2566 H        81      M_A    0.0000
    573 H         114.7083   92.0931   91.1046 H        81      M_A    0.0000
    574 H         115.8719   90.9707   90.4144 H        81      M_A    0.0000
    575 C         114.7174   90.6736   88.1682 C.3      82      M_A    0.0000
    576 C         114.0610   89.3052   88.0115 C.3      82      M_A    0.0000
    577 O         112.8013   89.4271   87.3511 O.3      82      M_A    0.0000
    578 H         114.6135   91.2689   87.2548 H        82      M_A    0.0000
    579 H         115.7888   90.5339   88.3527 H        82      M_A    0.0000
    580 H         113.8757   88.8443   88.9898 H        82      M_A    0.0000
    581 H         114.7317   88.6222   87.4706 H        82      M_A    0.0000
    582 C         112.3452   88.1781   86.8725 C.3      83      M_A    0.0000
    583 C         111.3848   87.5052   87.8486 C.3      83      M_A    0.0000
    584 O         110.0334   87.8362   87.5294 O.3      83      M_A    0.0000
    585 H         111.8776   88.3202   85.8924 H        83      M_A    0.0000
    586 H         113.2190   87.5315   86.7322 H        83      M_A    0.0000
    587 H         111.5711   87.8403   88.8766 H        83      M_A    0.0000
    588 H         111.5414   86.4168   87.8455 H        83      M_A    0.0000
    589 C         109.1399   87.3774   88.5235 C.3      84      M_A    0.0000
    590 C         107.6947   87.7584   88.2165 C.3      84      M_A    0.0000
    591 O         106.9471   86.6083   87.8213 O.3      84      M_A    0.0000
    592 H         109.2490   86.2928   88.6289 H        84      M_A    0.0000
    593 H         109.4323   87.8341   89.4760 H        84      M_A    0.0000
    594 H         107.6457   88.4811   87.3924 H        84      M_A    0.0000
    595 H         107.2391   88.2517   89.0872 H        84      M_A    0.0000
    596 C         105.6603   86.9623   87.3569 C.3      85      M_A    0.0000
    597 C         105.0554   85.8835   86.4634 C.3      85      M_A    0.0000
    598 O         103.9680   85.2373   87.1251 O.3      85      M_A    0.0000
    599 H         105.0149   87.1711   88.2168 H        85      M_A    0.0000
    600 H         105.7536   87.8894   86.7798 H        85      M_A    0.0000
    601 H         105.7976   85.1124   86.2215 H        85      M_A    0.0000
    602 H         104.7385   86.3185   85.5046 H        85      M_A    0.0000
    603 C         103.7845   83.9186   86.6517 C.3      86      M_A    0.0000
    604 C         102.3403   83.4500   86.8028 C.3      86      M_A    0.0000
    605 O         101.8721   82.8706   85.5851 O.3      86      M_A    0.0000
    606 H         104.1101   83.8653   85.6074 H        86      M_A    0.0000
    607 H         104.4347   83.2573   87.2358 H        86      M_A    0.0000
    608 H         101.6777   84.2911   87.0424 H        86      M_A    0.0000
    609 H         102.2565   82.7427   87.6404 H        86      M_A    0.0000
    610 C         100.4645   82.9453   85.4843 C.3      87      M_A    0.0000
    611 C          99.8132   81.5657   85.5076 C.3      87      M_A    0.0000
    612 O          98.7477   81.5313   86.4571 O.3      87      M_A    0.0000
    613 H         100.0815   83.5770   86.2928 H        87      M_A    0.0000
    614 H         100.2202   83.4368   84.5356 H        87      M_A    0.0000
    615 H         100.5374   80.7945   85.7985 H        87      M_A    0.0000
    616 H          99.4613   81.2951   84.5017 H        87      M_A    0.0000
    617 C          97.6986   82.4036   86.0891 C.3      88      M_A    0.0000
    618 C          96.4445   81.6458   85.6635 C.3      88      M_A    0.0000
    619 O          95.4242   81.7704   86.6541 O.3      88      M_A    0.0000
    620 H          97.4873   83.0805   86.9237 H        88      M_A    0.0000
    621 H          98.0470   83.0135   85.2477 H        88      M_A    0.0000
    622 H          96.6548   80.5760   85.5413 H        88      M_A    0.0000
    623 H          96.0974   82.0061   84.6844 H        88      M_A    0.0000
    624 C          94.1348   81.6956   86.0807 C.3      89      M_A    0.0000
    625 C          93.6624   80.2542   85.9160 C.3      89      M_A    0.0000
    626 O          92.2607   80.1550   86.1679 O.3      89      M_A    0.0000
    627 H          93.4361   82.2728   86.6957 H        89      M_A    0.0000
    628 H          94.1770   82.1698   85.0934 H        89      M_A    0.0000
    629 H          94.1715   79.5906   86.6262 H        89      M_A    0.0000
    630 H          93.9154   79.8842   84.9120 H        89      M_A    0.0000
    631 C          91.5064   80.4013   84.9986 C.3      90      M_A    0.0000
    632 C          90.6248   79.2139   84.6233 C.3      90      M_A    0.0000
    633 O          89.2468   79.5331   84.8160 O.3      90      M_A    0.0000
    634 H          90.9086   81.3075   85.1432 H        90      M_A    0.0000
    635 H          92.2083   80.5946   84.1793 H        90      M_A    0.0000
    636 H          90.8511   78.3430   85.2511 H        90      M_A    0.0000
    637 H          90.8229   78.9068   83.5863 H        90      M_A    0.0000
    638 C          88.4123   78.7363   84.0000 C.3      91      M_A    0.0000
    639 C          87.5799   77.7528   84.8172 C.3      91      M_A    0.0000
    640 O          86.1889   78.0471   84.6889 O.3      91      M_A    0.0000
    641 H          87.7729   79.3898   83.3970 H        91      M_A    0.0000
    642 H          89.0527   78.1727   83.3119 H        91      M_A    0.0000
    643 H          87.8321   77.8160   85.8831 H        91      M_A    0.0000
    644 H          87.8005   76.7208   84.5084 H        91      M_A    0.0000
    645 C          85.4908   77.7788   85.8879 C.3      92      M_A    0.0000
    646 C          84.2684   76.8958   85.6553 C.3      92      M_A    0.0000
    647 O          84.0826   75.9997   86.7509 O.3      92      M_A    0.0000
    648 H          86.1783   77.3207   86.6069 H        92      M_A    0.0000
    649 H          85.1618   78.7363   86.3077 H        92      M_A    0.0000
    650 H          84.3900   76.2876   84.7503 H        92      M_A    0.0000
    651 H          83.3766   77.5178   85.4917 H        92      M_A    0.0000
    652 C          83.4210   76.6305   87.8285 C.3      93      M_A    0.0000
    653 C          82.5058   75.6698   88.5818 C.3      93      M_A    0.0000
    654 O          82.6278   75.8635   89.9909 O.3      93      M_A    0.0000
    655 H          84.1678   77.0714   88.4975 H        93      M_A    0.0000
    656 H          82.8171   77.4490   87.4206 H        93      M_A    0.0000
    657 H          82.7714   74.6266   88.3695 H        93      M_A    0.0000
    658 H          81.4655   75.7973   88.2493 H        93      M_A    0.0000
    659 C          81.4967   75.3717   90.6805 C.3      94      M_A    0.0000
    660 C          81.1300   73.9558   90.2458 C.3      94      M_A    0.0000
    661 O          80.1147   73.4190   91.0936 O.3      94      M_A    0.0000
    662 H          81.6873   75.4175   91.7581 H        94      M_A    0.0000
    663 H          80.6540   76.0383   90.4643 H        94      M_A    0.0000
    664 H          81.9983   73.2882   90.3100 H        94      M_A    0.0000
    665 H          80.8148   73.9519   89.1925 H        94      M_A    0.0000
    666 C          80.2670   72.0245   91.2641 C.3      95      M_A    0.0000
    667 C          79.1224   71.2401   90.6295 C.3      95      M_A    0.0000
    668 O          79.6308   70.2230   89.7665 O.3      95      M_A    0.0000
    669 H          81.2336   71.7175   90.8507 H        95      M_A    0.0000
    670 H          80.2856   71.8166   92.3401 H        95      M_A    0.0000
    671 H          78.4851   71.8964   90.0239 H        95      M_A    0.0000
    672 H          78.4748   70.8154   91.4100 H        95      M_A    0.0000
    673 C          78.6549   69.7979   88.8370 C.3      96      M_A    0.0000
    674 C          78.7915   68.3165   88.4983 C.3      96      M_A    0.0000
    675 O          77.5049   67.7083   88.3851 O.3      96      M_A    0.0000
    676 H          77.6599   70.0222   89.2359 H        96      M_A    0.0000
    677 H          78.7845   70.3846   87.9204 H        96      M_A    0.0000
    678 H          79.3390   67.7827   89.2850 H        96      M_A    0.0000
    679 H          79.3759   68.1904   87.5755 H        96      M_A    0.0000
    680 C          76.9308   67.9450   87.1157 C.3      97      M_A    0.0000
    681 C          76.7951   66.6634   86.2990 C.3      97      M_A    0.0000
    682 O          75.4273   66.4228   85.9687 O.3      97      M_A    0.0000
    683 H          75.9598   68.4340   87.2482 H        97      M_A    0.0000
    684 H          77.5820   68.6421   86.5760 H        97      M_A    0.0000
    685 H          77.1533   65.7959   86.8673 H        97      M_A    0.0000
    686 H          77.4203   66.7206   85.3963 H        97      M_A    0.0000
    687 C          75.3078   65.5541   84.8606 C.3      98      M_A    0.0000
    688 C          74.5973   64.2537   85.2246 C.3      98      M_A    0.0000
    689 O          73.9361   63.7082   84.0830 O.3      98      M_A    0.0000
    690 H          74.7862   66.0764   84.0516 H        98      M_A    0.0000
    691 H          76.3179   65.3190   84.5063 H        98      M_A    0.0000
    692 H          73.8351   64.4251   85.9949 H        98      M_A    0.0000
    693 H          75.3131   63.5371   85.6525 H        98      M_A    0.0000
    694 C          74.8322   62.9877   83.2616 C.3      99      M_A    0.0000
    695 C          74.4394   61.5188   83.1338 C.3      99      M_A    0.0000
    696 O          73.7433   61.2917   81.9083 O.3      99      M_A    0.0000
    697 H          74.8834   63.4700   82.2796 H        99      M_A    0.0000
    698 H          75.8286   63.0502   83.7139 H        99      M_A    0.0000
    699 H          73.7721   61.2183   83.9512 H        99      M_A    0.0000
    700 H          75.3306   60.8795   83.2119 H        99      M_A    0.0000
    701 C          72.8844   60.1734   82.0010 C.3     100      M_A    0.0000
    702 C          71.5611   60.4042   81.2773 C.3     100      M_A    0.0000
    703 O          71.2165   59.2651   80.4890 O.3     100      M_A    0.0000
    704 H          73.4017   59.2919   81.6073 H       100      M_A    0.0000
    705 H          72.6810   59.9917   83.0625 H       100      M_A    0.0000
    706 H          71.6292   61.2644   80.5996 H       100      M_A    0.0000
    707 H          70.7693   60.6437   82.0016 H       100      M_A    0.0000
    708 C          70.5384   59.6400   79.3072 C.3     101      M_A    0.0000
    709 C          70.1605   58.4325   78.4545 C.3     101      M_A    0.0000
    710 O          69.1127   58.7699   77.5455 O.3     101      M_A    0.0000
    711 H          69.6538   60.2280   79.5740 H       101      M_A    0.0000
    712 H          71.2051   60.2887   78.7275 H       101      M_A    0.0000
    713 H          69.7990   57.6073   79.0807 H       101      M_A    0.0000
    714 H          71.0443   58.0520   77.9225 H       101      M_A    0.0000
    715 C          69.6261   59.2465   76.3183 C.3     102      M_A    0.0000
    716 C          70.3339   58.1502   75.5275 C.3     102      M_A    0.0000
    717 O          69.8663   58.1245   74.1790 O.3     102      M_A    0.0000
    718 H          68.8100   59.6890   75.7372 H       102      M_A    0.0000
    719 H          70.3448   60.0436   76.5405 H       102      M_A    0.0000
    720 H          70.1364   57.1625   75.9626 H       102      M_A    0.0000
    721 H          71.4231   58.2942   75.5704 H       102      M_A    0.0000
    722 C          70.9153   57.8494   73.2730 C.3     103      M_A    0.0000
    723 C          71.7553   56.6541   73.7131 C.3     103      M_A    0.0000
    724 O          72.5082   56.1399   72.6146 O.3     103      M_A    0.0000
    725 H          70.4930   57.6898   72.2751 H       103      M_A    0.0000
    726 H          71.5584   58.7355   73.2229 H       103      M_A    0.0000
    727 H          71.1181   55.8415   74.0836 H       103      M_A    0.0000
    728 H          72.4107   56.9381   74.5490 H       103      M_A    0.0000
    729 C          73.6874   56.8886   72.4001 C.3     104      M_A    0.0000
    730 C          73.8555   57.2884   70.9373 C.3     104      M_A    0.0000
    731 O          74.2929   58.6435   70.8359 O.3     104      M_A    0.0000
    732 H          73.6752   57.7688   73.0517 H       104      M_A    0.0000
    733 H          74.5398   56.2674   72.6982 H       104      M_A    0.0000
    734 H          72.9040   57.2090   70.3967 H       104      M_A    0.0000
    735 H          74.5541   56.6041   70.4347 H       104      M_A    0.0000
    736 C          74.4980   59.0215   69.4898 C.3     105      M_A    0.0000
    737 C          73.2059   58.9822   68.6792 C.3     105      M_A    0.0000
    738 O          73.2711   59.9010   67.5886 O.3     105      M_A    0.0000
    739 H          74.9509   60.0183   69.4636 H       105      M_A    0.0000
    740 H          75.2149   58.3199   69.0483 H       105      M_A    0.0000
    741 H          72.3456   59.2671   69.2977 H       105      M_A    0.0000
    742 H          73.0087   57.9589   68.3287 H       105      M_A    0.0000
    743 C          74.5930   60.0416   67.1091 C.3     106      M_A    0.0000
    744 C          74.6611   59.9778   65.5862 C.3     106      M_A    0.0000
    745 O          75.5539   60.9717   65.0831 O.3     106      M_A    0.0000
    746 H          75.0112   60.9816   67.4846 H       106      M_A    0.0000
    747 H          75.1913   59.2230   67.5254 H       106      M_A    0.0000
    748 H          73.6761   60.1655   65.1409 H       106      M_A    0.0000
    749 H          74.9599   58.9707   65.2615 H       106      M_A    0.0000
    750 C          75.4946   61.0545   63.6737 C.3     107      M_A    0.0000
    751 C          76.0987   62.3536   63.1490 C.3     107      M_A    0.0000
    752 O          75.2557   62.9307   62.1519 O.3     107      M_A    0.0000
    753 H          75.9978   60.1822   63.2430 H       107      M_A    0.0000
    754 H          74.4403   61.0087   63.3775 H       107      M_A    0.0000
    755 H          77.0775   62.1730   62.6872 H       107      M_A    0.0000
    756 H          76.2733   63.0534   63.9789 H       107      M_A    0.0000
    757 C          75.3463   64.3410   62.1510 C.3     108      M_A    0.0000
    758 C          74.0377   65.0006   62.5758 C.3     108      M_A    0.0000
    759 O          74.2957   66.1971   63.3103 O.3     108      M_A    0.0000
    760 H          76.1725   64.6464   62.8019 H       108      M_A    0.0000
    761 H          75.5909   64.6623   61.1321 H       108      M_A    0.0000
    762 H          73.4555   64.3353   63.2256 H       108      M_A    0.0000
    763 H          73.4097   65.1995   61.6954 H       108      M_A    0.0000
    764 C          75.4911   66.8183   62.8837 C.3     109      M_A    0.0000
    765 C          75.2230   68.0711   62.0550 C.3     109      M_A    0.0000
    766 O          75.1669   69.2242   62.8947 O.3     109      M_A    0.0000
    767 H          76.1068   67.0482   63.7598 H       109      M_A    0.0000
    768 H          76.0443   66.0986   62.2695 H       109      M_A    0.0000
    769 H          74.2609   67.9979   61.5328 H       109      M_A    0.0000
    770 H          75.9901   68.1815   61.2749 H       109      M_A    0.0000
    771 C          74.1542   70.1178   62.4792 C.3     110      M_A    0.0000
    772 C          72.7583   69.5306   62.6661 C.3     110      M_A    0.0000
    773 O          71.8311   70.5516   63.0345 O.3     110      M_A    0.0000
    774 H          74.2629   71.0604   63.0262 H       110      M_A    0.0000
    775 H          74.3093   70.3319   61.4156 H       110      M_A    0.0000
    776 H          72.7526   68.7781   63.4645 H       110      M_A    0.0000
    777 H          72.4391   69.0120   61.7506 H       110      M_A    0.0000
    778 C          70.7247   70.5869   62.1561 C.3     111      M_A    0.0000
    779 C          69.3958   70.5810   62.9060 C.3     111      M_A    0.0000
    780 O          68.4533   71.4373   62.2609 O.3     111      M_A    0.0000
    781 H          70.8097   71.4667   61.5094 H       111      M_A    0.0000
    782 H          70.7743   69.6988   61.5158 H       111      M_A    0.0000
    783 H          69.5228   70.9466   63.9327 H       111      M_A    0.0000
    784 H          69.0116   69.5542   62.9893 H       111      M_A    0.0000
    785 C          67.3532   70.7082   61.7559 C.3     112      M_A    0.0000
    786 C          66.0308   71.4356   61.9800 C.3     112      M_A    0.0000
    787 O          65.4307   71.7793   60.7311 O.3     112      M_A    0.0000
    788 H          67.5172   70.5048   60.6923 H       112      M_A    0.0000
    789 H          67.3202   69.7443   62.2765 H       112      M_A    0.0000
    790 H          66.1850   72.3677   62.5379 H       112      M_A    0.0000
    791 H          65.3567   70.8181   62.5910 H       112      M_A    0.0000
    792 C          64.3026   72.6112   60.9108 C.3     113      M_A    0.0000
    793 C          64.3687   73.8638   60.0421 C.3     113      M_A    0.0000
    794 O          63.1059   74.1114   59.4240 O.3     113      M_A    0.0000
    795 H          63.3958   72.0333   60.7029 H       113      M_A    0.0000
    796 H          64.2699   72.9116   61.9644 H       113      M_A    0.0000
    797 H          65.1093   73.7474   59.2411 H       113      M_A    0.0000
    798 H          64.6958   74.7250   60.6423 H       113      M_A    0.0000
    799 C          63.1905   75.1546   58.4746 C.3     114      M_A    0.0000
    800 C          61.8227   75.7479   58.1501 C.3     114      M_A    0.0000
    801 O          61.9232   77.1579   57.9511 O.3     114      M_A    0.0000
    802 H          63.8761   75.9228   58.8479 H       114      M_A    0.0000
    803 H          63.6242   74.7408   57.5570 H       114      M_A    0.0000
    804 H          61.1173   75.5819   58.9740 H       114      M_A    0.0000
    805 H          61.3920   75.2495   57.2698 H       114      M_A    0.0000
    806 C          62.6744   77.4647   56.7941 C.3     115      M_A    0.0000
    807 C          61.8653   78.2690   55.7809 C.3     115      M_A    0.0000
    808 O          61.9416   79.6641   56.0738 O.3     115      M_A    0.0000
    809 H          63.5827   78.0005   57.0895 H       115      M_A    0.0000
    810 H          62.9824   76.5198   56.3320 H       115      M_A    0.0000
    811 H          60.8060   77.9847   55.8098 H       115      M_A    0.0000
    812 H          62.2147   78.0550   54.7605 H       115      M_A    0.0000
    813 C          60.8874   80.0731   56.9212 C.3     116      M_A    0.0000
    814 C          59.9751   81.0956   56.2502 C.3     116      M_A    0.0000
    815 O          58.6875   80.5310   56.0024 O.3     116      M_A    0.0000
    816 H          60.3236   79.1905   57.2417 H       116      M_A    0.0000
    817 H          61.3303   80.5261   57.8155 H       116      M_A    0.0000
    818 H          60.3858   81.4137   55.2838 H       116      M_A    0.0000
    819 H          59.9020   82.0022   56.8680 H       116      M_A    0.0000
    820 C          57.8867   81.3930   55.2198 C.3     117      M_A    0.0000
    821 C          58.3985   81.5089   53.7870 C.3     117      M_A    0.0000
    822 O          57.5089   80.8533   52.8833 O.3     117      M_A    0.0000
    823 H          56.8512   81.0371   55.2421 H       117      M_A    0.0000
    824 H          57.9062   82.3855   55.6845 H       117      M_A    0.0000
    825 H          59.3821   81.0344   53.6819 H       117      M_A    0.0000
    826 H          58.5353   82.5660   53.5172 H       117      M_A    0.0000
    827 C          56.4009   81.6702   52.5644 C.3     118      M_A    0.0000
    828 C          56.8049   82.8905   51.7422 C.3     118      M_A    0.0000
    829 O          56.1756   82.8616   50.4612 O.3     118      M_A    0.0000
    830 H          55.6531   81.0683   52.0371 H       118      M_A    0.0000
    831 H          55.9505   82.0093   53.5043 H       118      M_A    0.0000
    832 H          57.8891   82.9098   51.5752 H       118      M_A    0.0000
    833 H          56.5600   83.8134   52.2874 H       118      M_A    0.0000
    834 C          55.5956   84.1100   50.1417 C.3     119      M_A    0.0000
    835 C          54.2115   83.9571   49.5180 C.3     119      M_A    0.0000
    836 O          53.2901   84.8698   50.1145 O.3     119      M_A    0.0000
    837 H          55.5559   84.7274   51.0454 H       119      M_A    0.0000
    838 H          56.2539   84.6137   49.4246 H       119      M_A    0.0000
    839 H          53.8195   82.9445   49.6757 H       119      M_A    0.0000
    840 H          54.2679   84.1002   48.4292 H       119      M_A    0.0000
    841 C          52.0783   84.9290   49.3901 C.3     120      M_A    0.0000
    842 C          50.9261   84.2714   50.1438 C.3     120      M_A    0.0000
    843 O          49.6774   84.8299   49.7355 O.3     120      M_A    0.0000
    844 H          51.8522   85.9749   49.1567 H       120      M_A    0.0000
    845 H          52.2273   84.4023   48.4405 H       120      M_A    0.0000
    846 H          51.0208   84.4336   51.2248 H       120      M_A    0.0000
    847 H          50.9458   83.1825   49.9921 H       120      M_A    0.0000
    848 C          48.6333   83.8818   49.8234 C.3     121      M_A    0.0000
    849 C          47.6084   84.2537   50.8908 C.3     121      M_A    0.0000
    850 O          46.3067   83.8064   50.5121 O.3     121      M_A    0.0000
    851 H          48.1609   83.7784   48.8407 H       121      M_A    0.0000
    852 H          49.0780   82.9137   50.0809 H       121      M_A    0.0000
    853 H          47.5563   85.3416   51.0229 H       121      M_A    0.0000
    854 H          47.9064   83.8384   51.8642 H       121      M_A    0.0000
    855 C          46.1221   82.4381   50.8130 C.3     122      M_A    0.0000
    856 C          45.1275   82.2296   51.9512 C.3     122      M_A    0.0000
    857 O          43.9020   81.6932   51.4529 O.3     122      M_A    0.0000
    858 H          45.8017   81.9130   49.9069 H       122      M_A    0.0000
    859 H          47.0927   82.0245   51.1101 H       122      M_A    0.0000
    860 H          44.8928   83.1800   52.4465 H       122      M_A    0.0000
    861 H          45.5644   81.5791   52.7226 H       122      M_A    0.0000
    862 C          42.9054   81.6634   52.4544 C.3     123      M_A    0.0000
    863 C          41.5610   82.1712   51.9417 C.3     123      M_A    0.0000
    864 O          40.4879   81.5219   52.6233 O.3     123      M_A    0.0000
    865 H          42.8203   80.6432   52.8435 H       123      M_A    0.0000
    866 H          43.2364   82.3059   53.2783 H       123      M_A    0.0000
    867 H          41.4447   81.9619   50.8710 H       123      M_A    0.0000
    868 H          41.5013   83.2637   52.0510 H       123      M_A    0.0000
    869 C          39.2677   82.2113   52.4421 C.3     124      M_A    0.0000
    870 C          38.0597   81.3297   52.7451 C.3     124      M_A    0.0000
    871 O          36.9277   82.1309   53.0837 O.3     124      M_A    0.0000
    872 H          39.2685   83.1097   53.0685 H       124      M_A    0.0000
    873 H          39.2162   82.5361   51.3966 H       124      M_A    0.0000
    874 H          38.2604   80.6680   53.5970 H       124      M_A    0.0000
    875 H          37.8440   80.6742   51.8892 H       124      M_A    0.0000
    876 C          36.2783   82.6227   51.9290 C.3     125      M_A    0.0000
    877 C          34.8231   82.1704   51.8522 C.3     125      M_A    0.0000
    878 O          33.9568   83.2948   51.7000 O.3     125      M_A    0.0000
    879 H          36.3539   83.7152   51.9145 H       125      M_A    0.0000
    880 H          36.8148   82.2417   51.0525 H       125      M_A    0.0000
    881 H          34.5253   81.6481   52.7700 H       125      M_A    0.0000
    882 H          34.6922   81.4508   51.0312 H       125      M_A    0.0000
    883 C          33.8965   84.0651   52.8832 C.3     126      M_A    0.0000
    884 C          33.8297   85.5612   52.5915 C.3     126      M_A    0.0000
    885 O          32.4756   86.0130   52.6009 O.3     126      M_A    0.0000
    886 H          33.0364   83.7395   53.4780 H       126      M_A    0.0000
    887 H          34.8007   83.8577   53.4668 H       126      M_A    0.0000
    888 H          34.2444   85.7870   51.6011 H       126      M_A    0.0000
    889 H          34.4417   86.1169   53.3164 H       126      M_A    0.0000
    890 C          31.7607   85.5280   51.4826 C.3     127      M_A    0.0000
    891 C          31.0244   86.6422   50.7446 C.3     127      M_A    0.0000
    892 O          31.8632   87.2188   49.7437 O.3     127      M_A    0.0000
    893 H          32.4531   85.0028   50.8162 H       127      M_A    0.0000
    894 H          31.0279   84.7966   51.8425 H       127      M_A    0.0000
    895 H          30.7355   87.4455   51.4338 H       127      M_A    0.0000
    896 H          30.0905   86.2571   50.3105 H       127      M_A    0.0000
    897 C          33.0174   86.4344   49.5214 C.3     128      M_A    0.0000
    898 C          34.1134   87.2164   48.8035 C.3     128      M_A    0.0000
    899 O          34.1239   88.5764   49.2371 O.3     128      M_A    0.0000
    900 H          33.3740   86.0436   50.4803 H       128      M_A    0.0000
    901 H          32.7286   85.5781   48.9012 H       128      M_A    0.0000
    902 H          33.9479   87.2187   47.7188 H       128      M_A    0.0000
    903 H          35.0898   86.7374   48.9657 H       128      M_A    0.0000
    904 C          33.8608   88.6798   50.6217 C.3     129      M_A    0.0000
    905 C          33.2885   90.0435   50.9970 C.3     129      M_A    0.0000
    906 O          33.0665   90.1228   52.4049 O.3     129      M_A    0.0000
    907 H          33.1836   87.8717   50.9180 H       129      M_A    0.0000
    908 H          34.8062   88.5328   51.1562 H       129      M_A    0.0000
    909 H          32.3242   90.2143   50.5023 H       129      M_A    0.0000
    910 H          33.9585   90.8442   50.6521 H       129      M_A    0.0000
    911 C          34.0505   89.4083   53.1247 C.3     130      M_A    0.0000
    912 C          35.4497   89.6281   52.5572 C.3     130      M_A    0.0000
    913 O          36.4410   89.1841   53.4836 O.3     130      M_A    0.0000
    914 H          34.0020   89.6977   54.1799 H       130      M_A    0.0000
    915 H          33.8060   88.3418   53.0620 H       130      M_A    0.0000
    916 H          35.6328   90.6927   52.3654 H       130      M_A    0.0000
    917 H          35.5508   89.1180   51.5884 H       130      M_A    0.0000
    918 H          36.7043   88.2563   53.3099 H       130      M_A    0.0000
    919 H         265.4968  141.3189   31.5778 H         0      M_A    0.0000
@<TRIPOS>BOND
     1     1     2      1
     2     1     4      1
     3     1     5      1
     4     1   919      1
     5     2     3      1
     6     2     6      1
     7     2     7      1
     8     3     8      1
     9     8     9      1
    10     8    11      1
    11     8    12      1
    12     9    10      1
    13     9    13      1
    14     9    14      1
    15    10    15      1
    16    15    16      1
    17    15    18      1
    18    15    19      1
    19    16    17      1
    20    16    20      1
    21    16    21      1
    22    17    22      1
    23    22    23      1
    24    22    25      1
    25    22    26      1
    26    23    24      1
    27    23    27      1
    28    23    28      1
    29    24    29      1
    30    29    30      1
    31    29    32      1
    32    29    33      1
    33    30    31      1
    34    30    34      1
    35    30    35      1
    36    31    36      1
    37    36    37      1
    38    36    39      1
    39    36    40      1
    40    37    38      1
    41    37    41      1
    42    37    42      1
    43    38    43      1
    44    43    44      1
    45    43    46      1
    46    43    47      1
    47    44    45      1
    48    44    48      1
    49    44    49      1
    50    45    50      1
    51    50    51      1
    52    50    53      1
    53    50    54      1
    54    51    52      1
    55    51    55      1
    56    51    56      1
    57    52    57      1
    58    57    58      1
    59    57    60      1
    60    57    61      1
    61    58    59      1
    62    58    62      1
    63    58    63      1
    64    59    64      1
    65    64    65      1
    66    64    67      1
    67    64    68      1
    68    65    66      1
    69    65    69      1
    70    65    70      1
    71    66    71      1
    72    71    72      1
    73    71    74      1
    74    71    75      1
    75    72    73      1
    76    72    76      1
    77    72    77      1
    78    73    78      1
    79    78    79      1
    80    78    81      1
    81    78    82      1
    82    79    80      1
    83    79    83      1
    84    79    84      1
    85    80    85      1
    86    85    86      1
    87    85    88      1
    88    85    89      1
    89    86    87      1
    90    86    90      1
    91    86    91      1
    92    87    92      1
    93    92    93      1
    94    92    95      1
    95    92    96      1
    96    93    94      1
    97    93    97      1
    98    93    98      1
    99    94    99      1
   100    99   100      1
   101    99   102      1
   102    99   103      1
   103   100   101      1
   104   100   104      1
   105   100   105      1
   106   101   106      1
   107   106   107      1
   108   106   109      1
   109   106   110      1
   110   107   108      1
   111   107   111      1
   112   107   112      1
   113   108   113      1
   114   113   114      1
   115   113   116      1
   116   113   117      1
   117   114   115      1
   118   114   118      1
   119   114   119      1
   120   115   120      1
   121   120   121      1
   122   120   123      1
   123   120   124      1
   124   121   122      1
   125   121   125      1
   126   121   126      1
   127   122   127      1
   128   127   128      1
   129   127   130      1
   130   127   131      1
   131   128   129      1
   132   128   132      1
   133   128   133      1
   134   129   134      1
   135   134   135      1
   136   134   137      1
   137   134   138      1
   138   135   136      1
   139   135   139      1
   140   135   140      1
   141   136   141      1
   142   141   142      1
   143   141   144      1
   144   141   145      1
   145   142   143      1
   146   142   146      1
   147   142   147      1
   148   143   148      1
   149   148   149      1
   150   148   151      1
   151   148   152      1
   152   149   150      1
   153   149   153      1
   154   149   154      1
   155   150   155      1
   156   155   156      1
   157   155   158      1
   158   155   159      1
   159   156   157      1
   160   156   160      1
   161   156   161      1
   162   157   162      1
   163   162   163      1
   164   162   165      1
   165   162   166      1
   166   163   164      1
   167   163   167      1
   168   163   168      1
   169   164   169      1
   170   169   170      1
   171   169   172      1
   172   169   173      1
   173   170   171      1
   174   170   174      1
   175   170   175      1
   176   171   176      1
   177   176   177      1
   178   176   179      1
   179   176   180      1
   180   177   178      1
   181   177   181      1
   182   177   182      1
   183   178   183      1
   184   183   184      1
   185   183   186      1
   186   183   187      1
   187   184   185      1
   188   184   188      1
   189   184   189      1
   190   185   190      1
   191   190   191      1
   192   190   193      1
   193   190   194      1
   194   191   192      1
   195   191   195      1
   196   191   196      1
   197   192   197      1
   198   197   198      1
   199   197   200      1
   200   197   201      1
   201   198   199      1
   202   198   202      1
   203   198   203      1
   204   199   204      1
   205   204   205      1
   206   204   207      1
   207   204   208      1
   208   205   206      1
   209   205   209      1
   210   205   210      1
   211   206   211      1
   212   211   212      1
   213   211   214      1
   214   211   215      1
   215   212   213      1
   216   212   216      1
   217   212   217      1
   218   213   218      1
   219   218   219      1
   220   218   221      1
   221   218   222      1
   222   219   220      1
   223   219   223      1
   224   219   224      1
   225   220   225      1
   226   225   226      1
   227   225   228      1
   228   225   229      1
   229   226   227      1
   230   226   230      1
   231   226   231      1
   232   227   232      1
   233   232   233      1
   234   232   235      1
   235   232   236      1
   236   233   234      1
   237   233   237      1
   238   233   238      1
   239   234   239      1
   240   239   240      1
   241   239   242      1
   242   239   243      1
   243   240   241      1
   244   240   244      1
   245   240   245      1
   246   241   246      1
   247   246   247      1
   248   246   249      1
   249   246   250      1
   250   247   248      1
   251   247   251      1
   252   247   252      1
   253   248   253      1
   254   253   254      1
   255   253   256      1
   256   253   257      1
   257   254   255      1
   258   254   258      1
   259   254   259      1
   260   255   260      1
   261   260   261      1
   262   260   263      1
   263   260   264      1
   264   261   262      1
   265   261   265      1
   266   261   266      1
   267   262   267      1
   268   267   268      1
   269   267   270      1
   270   267   271      1
   271   268   269      1
   272   268   272      1
   273   268   273      1
   274   269   274      1
   275   274   275      1
   276   274   277      1
   277   274   278      1
   278   275   276      1
   279   275   279      1
   280   275   280      1
   281   276   281      1
   282   281   282      1
   283   281   284      1
   284   281   285      1
   285   282   283      1
   286   282   286      1
   287   282   287      1
   288   283   288      1
   289   288   289      1
   290   288   291      1
   291   288   292      1
   292   289   290      1
   293   289   293      1
   294   289   294      1
   295   290   295      1
   296   295   296      1
   297   295   298      1
   298   295   299      1
   299   296   297      1
   300   296   300      1
   301   296   301      1
   302   297   302      1
   303   302   303      1
   304   302   305      1
   305   302   306      1
   306   303   304      1
   307   303   307      1
   308   303   308      1
   309   304   309      1
   310   309   310      1
   311   309   312      1
   312   309   313      1
   313   310   311      1
   314   310   314      1
   315   310   315      1
   316   311   316      1
   317   316   317      1
   318   316   319      1
   319   316   320      1
   320   317   318      1
   321   317   321      1
   322   317   322      1
   323   318   323      1
   324   323   324      1
   325   323   326      1
   326   323   327      1
   327   324   325      1
   328   324   328      1
   329   324   329      1
   330   325   330      1
   331   330   331      1
   332   330   333      1
   333   330   334      1
   334   331   332      1
   335   331   335      1
   336   331   336      1
   337   332   337      1
   338   337   338      1
   339   337   340      1
   340   337   341      1
   341   338   339      1
   342   338   342      1
   343   338   343      1
   344   339   344      1
   345   344   345      1
   346   344   347      1
   347   344   348      1
   348   345   346      1
   349   345   349      1
   350   345   350      1
   351   346   351      1
   352   351   352      1
   353   351   354      1
   354   351   355      1
   355   352   353      1
   356   352   356      1
   357   352   357      1
   358   353   358      1
   359   358   359      1
   360   358   361      1
   361   358   362      1
   362   359   360      1
   363   359   363      1
   364   359   364      1
   365   360   365      1
   366   365   366      1
   367   365   368      1
   368   365   369      1
   369   366   367      1
   370   366   370      1
   371   366   371      1
   372   367   372      1
   373   372   373      1
   374   372   375      1
   375   372   376      1
   376   373   374      1
   377   373   377      1
   378   373   378      1
   379   374   379      1
   380   379   380      1
   381   379   382      1
   382   379   383      1
   383   380   381      1
   384   380   384      1
   385   380   385      1
   386   381   386      1
   387   386   387      1
   388   386   389      1
   389   386   390      1
   390   387   388      1
   391   387   391      1
   392   387   392      1
   393   388   393      1
   394   393   394      1
   395   393   396      1
   396   393   397      1
   397   394   395      1
   398   394   398      1
   399   394   399      1
   400   395   400      1
   401   400   401      1
   402   400   403      1
   403   400   404      1
   404   401   402      1
   405   401   405      1
   406   401   406      1
   407   402   407      1
   408   407   408      1
   409   407   410      1
   410   407   411      1
   411   408   409      1
   412   408   412      1
   413   408   413      1
   414   409   414      1
   415   414   415      1
   416   414   417      1
   417   414   418      1
   418   415   416      1
   419   415   419      1
   420   415   420      1
   421   416   421      1
   422   421   422      1
   423   421   424      1
   424   421   425      1
   425   422   423      1
   426   422   426      1
   427   422   427      1
   428   423   428      1
   429   428   429      1
   430   428   431      1
   431   428   432      1
   432   429   430      1
   433   429   433      1
   434   429   434      1
   435   430   435      1
   436   435   436      1
   437   435   438      1
   438   435   439      1
   439   436   437      1
   440   436   440      1
   441   436   441      1
   442   437   442      1
   443   442   443      1
   444   442   445      1
   445   442   446      1
   446   443   444      1
   447   443   447      1
   448   443   448      1
   449   444   449      1
   450   449   450      1
   451   449   452      1
   452   449   453      1
   453   450   451      1
   454   450   454      1
   455   450   455      1
   456   451   456      1
   457   456   457      1
   458   456   459      1
   459   456   460      1
   460   457   458      1
   461   457   461      1
   462   457   462      1
   463   458   463      1
   464   463   464      1
   465   463   466      1
   466   463   467      1
   467   464   465      1
   468   464   468      1
   469   464   469      1
   470   465   470      1
   471   470   471      1
   472   470   473      1
   473   470   474      1
   474   471   472      1
   475   471   475      1
   476   471   476      1
   477   472   477      1
   478   477   478      1
   479   477   480      1
   480   477   481      1
   481   478   479      1
   482   478   482      1
   483   478   483      1
   484   479   484      1
   485   484   485      1
   486   484   487      1
   487   484   488      1
   488   485   486      1
   489   485   489      1
   490   485   490      1
   491   486   491      1
   492   491   492      1
   493   491   494      1
   494   491   495      1
   495   492   493      1
   496   492   496      1
   497   492   497      1
   498   493   498      1
   499   498   499      1
   500   498   501      1
   501   498   502      1
   502   499   500      1
   503   499   503      1
   504   499   504      1
   505   500   505      1
   506   505   506      1
   507   505   508      1
   508   505   509      1
   509   506   507      1
   510   506   510      1
   511   506   511      1
   512   507   512      1
   513   512   513      1
   514   512   515      1
   515   512   516      1
   516   513   514      1
   517   513   517      1
   518   513   518      1
   519   514   519      1
   520   519   520      1
   521   519   522      1
   522   519   523      1
   523   520   521      1
   524   520   524      1
   525   520   525      1
   526   521   526      1
   527   526   527      1
   528   526   529      1
   529   526   530      1
   530   527   528      1
   531   527   531      1
   532   527   532      1
   533   528   533      1
   534   533   534      1
   535   533   536      1
   536   533   537      1
   537   534   535      1
   538   534   538      1
   539   534   539      1
   540   535   540      1
   541   540   541      1
   542   540   543      1
   543   540   544      1
   544   541   542      1
   545   541   545      1
   546   541   546      1
   547   542   547      1
   548   547   548      1
   549   547   550      1
   550   547   551      1
   551   548   549      1
   552   548   552      1
   553   548   553      1
   554   549   554      1
   555   554   555      1
   556   554   557      1
   557   554   558      1
   558   555   556      1
   559   555   559      1
   560   555   560      1
   561   556   561      1
   562   561   562      1
   563   561   564      1
   564   561   565      1
   565   562   563      1
   566   562   566      1
   567   562   567      1
   568   563   568      1
   569   568   569      1
   570   568   571      1
   571   568   572      1
   572   569   570      1
   573   569   573      1
   574   569   574      1
   575   570   575      1
   576   575   576      1
   577   575   578      1
   578   575   579      1
   579   576   577      1
   580   576   580      1
   581   576   581      1
   582   577   582      1
   583   582   583      1
   584   582   585      1
   585   582   586      1
   586   583   584      1
   587   583   587      1
   588   583   588      1
   589   584   589      1
   590   589   590      1
   591   589   592      1
   592   589   593      1
   593   590   591      1
   594   590   594      1
   595   590   595      1
   596   591   596      1
   597   596   597      1
   598   596   599      1
   599   596   600      1
   600   597   598      1
   601   597   601      1
   602   597   602      1
   603   598   603      1
   604   603   604      1
   605   603   606      1
   606   603   607      1
   607   604   605      1
   608   604   608      1
   609   604   609      1
   610   605   610      1
   611   610   611      1
   612   610   613      1
   613   610   614      1
   614   611   612      1
   615   611   615      1
   616   611   616      1
   617   612   617      1
   618   617   618      1
   619   617   620      1
   620   617   621      1
   621   618   619      1
   622   618   622      1
   623   618   623      1
   624   619   624      1
   625   624   625      1
   626   624   627      1
   627   624   628      1
   628   625   626      1
   629   625   629      1
   630   625   630      1
   631   626   631      1
   632   631   632      1
   633   631   634      1
   634   631   635      1
   635   632   633      1
   636   632   636      1
   637   632   637      1
   638   633   638      1
   639   638   639      1
   640   638   641      1
   641   638   642      1
   642   639   640      1
   643   639   643      1
   644   639   644      1
   645   640   645      1
   646   645   646      1
   647   645   648      1
   648   645   649      1
   649   646   647      1
   650   646   650      1
   651   646   651      1
   652   647   652      1
   653   652   653      1
   654   652   655      1
   655   652   656      1
   656   653   654      1
   657   653   657      1
   658   653   658      1
   659   654   659      1
   660   659   660      1
   661   659   662      1
   662   659   663      1
   663   660   661      1
   664   660   664      1
   665   660   665      1
   666   661   666      1
   667   666   667      1
   668   666   669      1
   669   666   670      1
   670   667   668      1
   671   667   671      1
   672   667   672      1
   673   668   673      1
   674   673   674      1
   675   673   676      1
   676   673   677      1
   677   674   675      1
   678   674   678      1
   679   674   679      1
   680   675   680      1
   681   680   681      1
   682   680   683      1
   683   680   684      1
   684   681   682      1
   685   681   685      1
   686   681   686      1
   687   682   687      1
   688   687   688      1
   689   687   690      1
   690   687   691      1
   691   688   689      1
   692   688   692      1
   693   688   693      1
   694   689   694      1
   695   694   695      1
   696   694   697      1
   697   694   698      1
   698   695   696      1
   699   695   699      1
   700   695   700      1
   701   696   701      1
   702   701   702      1
   703   701   704      1
   704   701   705      1
   705   702   703      1
   706   702   706      1
   707   702   707      1
   708   703   708      1
   709   708   709      1
   710   708   711      1
   711   708   712      1
   712   709   710      1
   713   709   713      1
   714   709   714      1
   715   710   715      1
   716   715   716      1
   717   715   718      1
   718   715   719      1
   719   716   717      1
   720   716   720      1
   721   716   721      1
   722   717   722      1
   723   722   723      1
   724   722   725      1
   725   722   726      1
   726   723   724      1
   727   723   727      1
   728   723   728      1
   729   724   729      1
   730   729   730      1
   731   729   732      1
   732   729   733      1
   733   730   731      1
   734   730   734      1
   735   730   735      1
   736   731   736      1
   737   736   737      1
   738   736   739      1
   739   736   740      1
   740   737   738      1
   741   737   741      1
   742   737   742      1
   743   738   743      1
   744   743   744      1
   745   743   746      1
   746   743   747      1
   747   744   745      1
   748   744   748      1
   749   744   749      1
   750   745   750      1
   751   750   751      1
   752   750   753      1
   753   750   754      1
   754   751   752      1
   755   751   755      1
   756   751   756      1
   757   752   757      1
   758   757   758      1
   759   757   760      1
   760   757   761      1
   761   758   759      1
   762   758   762      1
   763   758   763      1
   764   759   764      1
   765   764   765      1
   766   764   767      1
   767   764   768      1
   768   765   766      1
   769   765   769      1
   770   765   770      1
   771   766   771      1
   772   771   772      1
   773   771   774      1
   774   771   775      1
   775   772   773      1
   776   772   776      1
   777   772   777      1
   778   773   778      1
   779   778   779      1
   780   778   781      1
   781   778   782      1
   782   779   780      1
   783   779   783      1
   784   779   784      1
   785   780   785      1
   786   785   786      1
   787   785   788      1
   788   785   789      1
   789   786   787      1
   790   786   790      1
   791   786   791      1
   792   787   792      1
   793   792   793      1
   794   792   795      1
   795   792   796      1
   796   793   794      1
   797   793   797      1
   798   793   798      1
   799   794   799      1
   800   799   800      1
   801   799   802      1
   802   799   803      1
   803   800   801      1
   804   800   804      1
   805   800   805      1
   806   801   806      1
   807   806   807      1
   808   806   809      1
   809   806   810      1
   810   807   808      1
   811   807   811      1
   812   807   812      1
   813   808   813      1
   814   813   814      1
   815   813   816      1
   816   813   817      1
   817   814   815      1
   818   814   818      1
   819   814   819      1
   820   815   820      1
   821   820   821      1
   822   820   823      1
   823   820   824      1
   824   821   822      1
   825   821   825      1
   826   821   826      1
   827   822   827      1
   828   827   828      1
   829   827   830      1
   830   827   831      1
   831   828   829      1
   832   828   832      1
   833   828   833      1
   834   829   834      1
   835   834   835      1
   836   834   837      1
   837   834   838      1
   838   835   836      1
   839   835   839      1
   840   835   840      1
   841   836   841      1
   842   841   842      1
   843   841   844      1
   844   841   845      1
   845   842   843      1
   846   842   846      1
   847   842   847      1
   848   843   848      1
   849   848   849      1
   850   848   851      1
   851   848   852      1
   852   849   850      1
   853   849   853      1
   854   849   854      1
   855   850   855      1
   856   855   856      1
   857   855   858      1
   858   855   859      1
   859   856   857      1
   860   856   860      1
   861   856   861      1
   862   857   862      1
   863   862   863      1
   864   862   865      1
   865   862   866      1
   866   863   864      1
   867   863   867      1
   868   863   868      1
   869   864   869      1
   870   869   870      1
   871   869   872      1
   872   869   873      1
   873   870   871      1
   874   870   874      1
   875   870   875      1
   876   871   876      1
   877   876   877      1
   878   876   879      1
   879   876   880      1
   880   877   878      1
   881   877   881      1
   882   877   882      1
   883   878   883      1
   884   883   884      1
   885   883   886      1
   886   883   887      1
   887   884   885      1
   888   884   888      1
   889   884   889      1
   890   885   890      1
   891   890   891      1
   892   890   893      1
   893   890   894      1
   894   891   892      1
   895   891   895      1
   896   891   896      1
   897   892   897      1
   898   897   898      1
   899   897   900      1
   900   897   901      1
   901   898   899      1
   902   898   902      1
   903   898   903      1
   904   899   904      1
   905   904   905      1
   906   904   907      1
   907   904   908      1
   908   905   906      1
   909   905   909      1
   910   905   910      1
   911   906   911      1
   912   911   912      1
   913   911   914      1
   914   911   915      1
   915   912   913      1
   916   912   916      1
   917   912   917      1
   918   913   918      1
