###
### Created by PolyChef-cpp17 on Mon May 12 10:39:09 2025
###

@<TRIPOS>MOLECULE
NO_INFO
282 281 1 0 0
SMALL
USER_CHARGES


@<TRIPOS>ATOM
      1 C         190.1630  242.0508   24.4033 C.3       0      M_A    0.0000
      2 C         190.6959  243.3661   23.8537 C.3       0      M_A    0.0000
      3 O         190.6619  243.2719   22.4308 O.3       0      M_A    0.0000
      4 H         190.4637  241.2282   23.7434 H         0      M_A    0.0000
      5 H         189.0666  242.0615   24.3834 H         0      M_A    0.0000
      6 H         190.0687  244.2022   24.1933 H         0      M_A    0.0000
      7 H         191.7261  243.5327   24.1981 H         0      M_A    0.0000
      8 C         191.7055  242.4540   21.9530 C.3       1      M_A    0.0000
      9 C         192.5897  243.1724   20.9440 C.3       1      M_A    0.0000
     10 O         193.6581  242.2863   20.6151 O.3       1      M_A    0.0000
     11 H         192.3164  242.1055   22.7944 H         1      M_A    0.0000
     12 H         191.2863  241.5496   21.4960 H         1      M_A    0.0000
     13 H         192.0130  243.4218   20.0424 H         1      M_A    0.0000
     14 H         192.9871  244.1001   21.3789 H         1      M_A    0.0000
     15 C         193.9120  241.3867   21.6698 C.3       2      M_A    0.0000
     16 C         195.0939  240.4726   21.3806 C.3       2      M_A    0.0000
     17 O         195.3350  239.7104   22.5620 O.3       2      M_A    0.0000
     18 H         194.0973  241.9453   22.5952 H         2      M_A    0.0000
     19 H         193.0180  240.7815   21.8626 H         2      M_A    0.0000
     20 H         194.8613  239.8048   20.5395 H         2      M_A    0.0000
     21 H         195.9818  241.0680   21.1259 H         2      M_A    0.0000
     22 C         196.1903  238.6224   22.2961 C.3       3      M_A    0.0000
     23 C         197.1138  238.8858   21.1154 C.3       3      M_A    0.0000
     24 O         198.3294  238.1831   21.3674 O.3       3      M_A    0.0000
     25 H         196.7885  238.3962   23.1870 H         3      M_A    0.0000
     26 H         195.5943  237.7224   22.1027 H         3      M_A    0.0000
     27 H         196.6536  238.5254   20.1848 H         3      M_A    0.0000
     28 H         197.3113  239.9626   21.0198 H         3      M_A    0.0000
     29 C         199.4487  238.9921   21.0865 C.3       4      M_A    0.0000
     30 C         200.7533  238.3566   21.5452 C.3       4      M_A    0.0000
     31 O         201.5337  239.3871   22.1484 O.3       4      M_A    0.0000
     32 H         199.4973  239.1946   20.0098 H         4      M_A    0.0000
     33 H         199.3275  239.9703   21.5672 H         4      M_A    0.0000
     34 H         200.5522  237.5582   22.2730 H         4      M_A    0.0000
     35 H         201.2898  237.9278   20.6873 H         4      M_A    0.0000
     36 C         202.6713  238.8525   22.7858 C.3       5      M_A    0.0000
     37 C         203.7209  239.9133   23.0846 C.3       5      M_A    0.0000
     38 O         204.9492  239.2317   23.3318 O.3       5      M_A    0.0000
     39 H         202.3739  238.3571   23.7179 H         5      M_A    0.0000
     40 H         203.1109  238.0670   22.1594 H         5      M_A    0.0000
     41 H         203.8300  240.5924   22.2275 H         5      M_A    0.0000
     42 H         203.4286  240.4997   23.9669 H         5      M_A    0.0000
     43 C         205.8562  240.0589   24.0241 C.3       6      M_A    0.0000
     44 C         207.2374  240.0672   23.3850 C.3       6      M_A    0.0000
     45 O         208.0565  239.1780   24.1421 O.3       6      M_A    0.0000
     46 H         205.4647  241.0824   24.0662 H         6      M_A    0.0000
     47 H         205.9359  239.7286   25.0667 H         6      M_A    0.0000
     48 H         207.1756  239.7295   22.3411 H         6      M_A    0.0000
     49 H         207.6598  241.0816   23.4054 H         6      M_A    0.0000
     50 C         209.2460  238.8735   23.4505 C.3       7      M_A    0.0000
     51 C         208.9963  238.0210   22.2148 C.3       7      M_A    0.0000
     52 O         210.2291  237.9435   21.5011 O.3       7      M_A    0.0000
     53 H         209.7526  239.8018   23.1601 H         7      M_A    0.0000
     54 H         209.9407  238.3537   24.1212 H         7      M_A    0.0000
     55 H         208.6640  237.0152   22.5073 H         7      M_A    0.0000
     56 H         208.2222  238.4813   21.5851 H         7      M_A    0.0000
     57 C         210.0976  237.1410   20.3502 C.3       8      M_A    0.0000
     58 C         211.4429  236.7901   19.7310 C.3       8      M_A    0.0000
     59 O         211.4908  235.3700   19.6061 O.3       8      M_A    0.0000
     60 H         209.5575  236.2202   20.6015 H         8      M_A    0.0000
     61 H         209.4754  237.6570   19.6090 H         8      M_A    0.0000
     62 H         211.5412  237.2611   18.7430 H         8      M_A    0.0000
     63 H         212.2612  237.1418   20.3747 H         8      M_A    0.0000
     64 C         212.0001  234.7761   20.7783 C.3       9      M_A    0.0000
     65 C         213.4864  235.0444   20.9658 C.3       9      M_A    0.0000
     66 O         214.1792  233.8562   20.5877 O.3       9      M_A    0.0000
     67 H         211.4472  235.1460   21.6501 H         9      M_A    0.0000
     68 H         211.8226  233.6943   20.7516 H         9      M_A    0.0000
     69 H         213.8037  235.8855   20.3337 H         9      M_A    0.0000
     70 H         213.6992  235.2895   22.0156 H         9      M_A    0.0000
     71 C         213.4583  233.1392   19.6118 C.3      10      M_A    0.0000
     72 C         214.1989  231.8959   19.1406 C.3      10      M_A    0.0000
     73 O         213.2953  230.7984   19.2583 O.3      10      M_A    0.0000
     74 H         212.4782  232.8533   20.0123 H        10      M_A    0.0000
     75 H         213.2500  233.7899   18.7540 H        10      M_A    0.0000
     76 H         214.5160  232.0154   18.0953 H        10      M_A    0.0000
     77 H         215.0876  231.7237   19.7636 H        10      M_A    0.0000
     78 C         213.9918  229.5750   19.3259 C.3      11      M_A    0.0000
     79 C         215.2601  229.5825   18.4847 C.3      11      M_A    0.0000
     80 O         215.7618  228.2473   18.4684 O.3      11      M_A    0.0000
     81 H         214.2443  229.3508   20.3693 H        11      M_A    0.0000
     82 H         213.3376  228.7587   18.9970 H        11      M_A    0.0000
     83 H         215.0361  229.9157   17.4618 H        11      M_A    0.0000
     84 H         216.0040  230.2616   18.9242 H        11      M_A    0.0000
     85 C         214.9389  227.3886   19.2244 C.3      12      M_A    0.0000
     86 C         213.6133  227.1000   18.5348 C.3      12      M_A    0.0000
     87 O         213.5948  225.7077   18.2248 O.3      12      M_A    0.0000
     88 H         215.4659  226.4462   19.4164 H        12      M_A    0.0000
     89 H         214.7516  227.8300   20.2106 H        12      M_A    0.0000
     90 H         212.7757  227.3512   19.2004 H        12      M_A    0.0000
     91 H         213.5259  227.6944   17.6147 H        12      M_A    0.0000
     92 C         214.7763  225.0764   18.6625 C.3      13      M_A    0.0000
     93 C         216.0098  225.5805   17.9273 C.3      13      M_A    0.0000
     94 O         217.0719  224.6733   18.2167 O.3      13      M_A    0.0000
     95 H         214.9015  225.2335   19.7406 H        13      M_A    0.0000
     96 H         214.6868  223.9916   18.5292 H        13      M_A    0.0000
     97 H         215.8216  225.6108   16.8450 H        13      M_A    0.0000
     98 H         216.2706  226.5914   18.2705 H        13      M_A    0.0000
     99 C         216.5746  223.3839   18.4928 C.3      14      M_A    0.0000
    100 C         217.6306  222.3035   18.3091 C.3      14      M_A    0.0000
    101 O         217.0282  221.0613   18.6682 O.3      14      M_A    0.0000
    102 H         216.1876  223.3489   19.5183 H        14      M_A    0.0000
    103 H         215.7159  223.1724   17.8442 H        14      M_A    0.0000
    104 H         217.9663  222.2736   17.2631 H        14      M_A    0.0000
    105 H         218.4971  222.5050   18.9542 H        14      M_A    0.0000
    106 C         217.7043  219.9795   18.0693 C.3      15      M_A    0.0000
    107 C         217.9120  218.8202   19.0331 C.3      15      M_A    0.0000
    108 O         218.3109  217.6929   18.2554 O.3      15      M_A    0.0000
    109 H         217.1436  219.6328   17.1929 H        15      M_A    0.0000
    110 H         218.6748  220.3169   17.6860 H        15      M_A    0.0000
    111 H         218.6916  219.0700   19.7662 H        15      M_A    0.0000
    112 H         216.9785  218.5994   19.5693 H        15      M_A    0.0000
    113 C         217.9734  216.4872   18.9022 C.3      16      M_A    0.0000
    114 C         218.2519  215.2669   18.0364 C.3      16      M_A    0.0000
    115 O         217.8023  214.1245   18.7627 O.3      16      M_A    0.0000
    116 H         218.5300  216.4045   19.8435 H        16      M_A    0.0000
    117 H         216.9138  216.5033   19.1844 H        16      M_A    0.0000
    118 H         217.7121  215.3462   17.0825 H        16      M_A    0.0000
    119 H         219.3280  215.1850   17.8294 H        16      M_A    0.0000
    120 C         216.3979  214.1207   18.8806 C.3      17      M_A    0.0000
    121 C         215.8396  212.7248   19.1174 C.3      17      M_A    0.0000
    122 O         215.1474  212.3418   17.9304 O.3      17      M_A    0.0000
    123 H         216.0942  214.7819   19.7010 H        17      M_A    0.0000
    124 H         215.9500  214.5467   17.9748 H        17      M_A    0.0000
    125 H         216.6558  212.0188   19.3247 H        17      M_A    0.0000
    126 H         215.1500  212.7311   19.9730 H        17      M_A    0.0000
    127 C         216.0521  212.0206   16.8987 C.3      18      M_A    0.0000
    128 C         216.8251  210.7408   17.1827 C.3      18      M_A    0.0000
    129 O         216.0405  209.6571   16.6878 O.3      18      M_A    0.0000
    130 H         215.5105  211.9200   15.9504 H        18      M_A    0.0000
    131 H         216.7550  212.8496   16.7524 H        18      M_A    0.0000
    132 H         217.8001  210.7650   16.6765 H        18      M_A    0.0000
    133 H         216.9891  210.6274   18.2634 H        18      M_A    0.0000
    134 C         215.1734  209.1644   17.6836 C.3      19      M_A    0.0000
    135 C         215.9178  208.4308   18.7898 C.3      19      M_A    0.0000
    136 O         214.9402  207.7523   19.5763 O.3      19      M_A    0.0000
    137 H         214.5977  209.9923   18.1147 H        19      M_A    0.0000
    138 H         214.4340  208.4932   17.2305 H        19      M_A    0.0000
    139 H         216.6248  207.7085   18.3582 H        19      M_A    0.0000
    140 H         216.4755  209.1450   19.4115 H        19      M_A    0.0000
    141 C         213.8283  207.3831   18.7931 C.3      20      M_A    0.0000
    142 C         213.3042  205.9986   19.1462 C.3      20      M_A    0.0000
    143 O         213.3399  205.2184   17.9525 O.3      20      M_A    0.0000
    144 H         213.0273  208.1217   18.9171 H        20      M_A    0.0000
    145 H         214.0982  207.4138   17.7306 H        20      M_A    0.0000
    146 H         213.9359  205.5385   19.9188 H        20      M_A    0.0000
    147 H         212.2746  206.0666   19.5239 H        20      M_A    0.0000
    148 C         212.3718  204.1948   17.9883 C.3      21      M_A    0.0000
    149 C         212.9505  202.8652   18.4504 C.3      21      M_A    0.0000
    150 O         211.9209  201.8877   18.3123 O.3      21      M_A    0.0000
    151 H         211.5489  204.4875   18.6514 H        21      M_A    0.0000
    152 H         211.9239  204.0750   16.9945 H        21      M_A    0.0000
    153 H         213.8174  202.5924   17.8325 H        21      M_A    0.0000
    154 H         213.2701  202.9335   19.4996 H        21      M_A    0.0000
    155 C         212.2253  200.7250   19.0482 C.3      22      M_A    0.0000
    156 C         213.7127  200.4030   19.0347 C.3      22      M_A    0.0000
    157 O         213.8770  199.1470   19.6907 O.3      22      M_A    0.0000
    158 H         211.8845  200.8434   20.0838 H        22      M_A    0.0000
    159 H         211.6616  199.8748   18.6457 H        22      M_A    0.0000
    160 H         214.0790  200.3411   18.0005 H        22      M_A    0.0000
    161 H         214.2758  201.1839   19.5645 H        22      M_A    0.0000
    162 C         212.6392  198.6457   20.1408 C.3      23      M_A    0.0000
    163 C         212.7524  197.2326   20.6945 C.3      23      M_A    0.0000
    164 O         211.5691  196.5345   20.3108 O.3      23      M_A    0.0000
    165 H         212.2294  199.3103   20.9109 H        23      M_A    0.0000
    166 H         211.9134  198.6611   19.3188 H        23      M_A    0.0000
    167 H         213.6389  196.7319   20.2807 H        23      M_A    0.0000
    168 H         212.8387  197.2590   21.7897 H        23      M_A    0.0000
    169 C         211.8767  195.2506   19.8179 C.3      24      M_A    0.0000
    170 C         211.0238  194.1643   20.4572 C.3      24      M_A    0.0000
    171 O         211.3481  192.9373   19.8059 O.3      24      M_A    0.0000
    172 H         211.7421  195.2306   18.7298 H        24      M_A    0.0000
    173 H         212.9378  195.0333   19.9897 H        24      M_A    0.0000
    174 H         211.2424  194.0923   21.5318 H        24      M_A    0.0000
    175 H         209.9568  194.3923   20.3266 H        24      M_A    0.0000
    176 C         210.2120  192.1116   19.6883 C.3      25      M_A    0.0000
    177 C         210.5699  190.6326   19.6657 C.3      25      M_A    0.0000
    178 O         209.3562  189.9092   19.4695 O.3      25      M_A    0.0000
    179 H         209.5233  192.3104   20.5182 H        25      M_A    0.0000
    180 H         209.6603  192.3701   18.7764 H        25      M_A    0.0000
    181 H         211.2722  190.4236   18.8468 H        25      M_A    0.0000
    182 H         211.0363  190.3395   20.6166 H        25      M_A    0.0000
    183 C         209.5227  188.5463   19.7875 C.3      26      M_A    0.0000
    184 C         210.8685  188.0039   19.3284 C.3      26      M_A    0.0000
    185 O         210.8623  186.5991   19.5760 O.3      26      M_A    0.0000
    186 H         209.4192  188.4042   20.8700 H        26      M_A    0.0000
    187 H         208.7155  187.9595   19.3327 H        26      M_A    0.0000
    188 H         211.0116  188.1992   18.2565 H        26      M_A    0.0000
    189 H         211.6831  188.4839   19.8884 H        26      M_A    0.0000
    190 C         209.6667  186.0101   19.1181 C.3      27      M_A    0.0000
    191 C         209.5514  184.5461   19.5176 C.3      27      M_A    0.0000
    192 O         208.4137  184.0139   18.8413 O.3      27      M_A    0.0000
    193 H         208.8069  186.5667   19.5100 H        27      M_A    0.0000
    194 H         209.6053  186.0991   18.0268 H        27      M_A    0.0000
    195 H         210.4577  183.9989   19.2230 H        27      M_A    0.0000
    196 H         209.4214  184.4577   20.6053 H        27      M_A    0.0000
    197 C         208.6851  183.8181   17.4724 C.3      28      M_A    0.0000
    198 C         209.6852  182.6960   17.2341 C.3      28      M_A    0.0000
    199 O         208.9405  181.4838   17.1305 O.3      28      M_A    0.0000
    200 H         207.7526  183.5985   16.9386 H        28      M_A    0.0000
    201 H         209.0656  184.7486   17.0343 H        28      M_A    0.0000
    202 H         210.2459  182.8769   16.3065 H        28      M_A    0.0000
    203 H         210.3946  182.6346   18.0712 H        28      M_A    0.0000
    204 C         209.6652  180.3981   17.6617 C.3      29      M_A    0.0000
    205 C         208.7917  179.4685   18.4919 C.3      29      M_A    0.0000
    206 O         209.1260  178.1328   18.1189 O.3      29      M_A    0.0000
    207 H         210.1332  179.8323   16.8471 H        29      M_A    0.0000
    208 H         210.4925  180.7717   18.2769 H        29      M_A    0.0000
    209 H         208.9835  179.6222   19.5629 H        29      M_A    0.0000
    210 H         207.7293  179.6638   18.2900 H        29      M_A    0.0000
    211 C         208.7899  177.2231   19.1414 C.3      30      M_A    0.0000
    212 C         207.7990  176.1664   18.6748 C.3      30      M_A    0.0000
    213 O         206.5632  176.4266   19.3379 O.3      30      M_A    0.0000
    214 H         209.6981  176.7354   19.5154 H        30      M_A    0.0000
    215 H         208.3714  177.7668   19.9969 H        30      M_A    0.0000
    216 H         207.6645  176.2256   17.5857 H        30      M_A    0.0000
    217 H         208.1638  175.1625   18.9332 H        30      M_A    0.0000
    218 C         205.6861  175.3296   19.2218 C.3      31      M_A    0.0000
    219 C         205.6484  174.7643   17.8092 C.3      31      M_A    0.0000
    220 O         204.3881  175.1237   17.2459 O.3      31      M_A    0.0000
    221 H         205.9839  174.5424   19.9247 H        31      M_A    0.0000
    222 H         204.6758  175.6306   19.5241 H        31      M_A    0.0000
    223 H         206.4662  175.1864   17.2087 H        31      M_A    0.0000
    224 H         205.7544  173.6708   17.8342 H        31      M_A    0.0000
    225 C         204.5575  175.8848   16.0719 C.3      32      M_A    0.0000
    226 C         203.3339  175.8369   15.1682 C.3      32      M_A    0.0000
    227 O         203.3291  177.0407   14.4028 O.3      32      M_A    0.0000
    228 H         204.7793  176.9259   16.3353 H        32      M_A    0.0000
    229 H         205.4350  175.5246   15.5215 H        32      M_A    0.0000
    230 H         203.3869  174.9645   14.5021 H        32      M_A    0.0000
    231 H         202.4180  175.7676   15.7714 H        32      M_A    0.0000
    232 C         202.0130  177.4352   14.0891 C.3      33      M_A    0.0000
    233 C         201.2747  176.3895   13.2660 C.3      33      M_A    0.0000
    234 O         199.9494  176.8752   13.0600 O.3      33      M_A    0.0000
    235 H         201.4571  177.6352   15.0130 H        33      M_A    0.0000
    236 H         202.0326  178.3860   13.5430 H        33      M_A    0.0000
    237 H         201.7781  176.2405   12.3006 H        33      M_A    0.0000
    238 H         201.2480  175.4315   13.8038 H        33      M_A    0.0000
    239 C         199.1020  175.8504   12.5935 C.3      34      M_A    0.0000
    240 C         197.7129  176.3622   12.2403 C.3      34      M_A    0.0000
    241 O         196.9894  175.2657   11.6846 O.3      34      M_A    0.0000
    242 H         199.5509  175.3707   11.7155 H        34      M_A    0.0000
    243 H         199.0214  175.0633   13.3529 H        34      M_A    0.0000
    244 H         197.2045  176.7345   13.1406 H        34      M_A    0.0000
    245 H         197.7833  177.1795   11.5090 H        34      M_A    0.0000
    246 C         197.7496  174.6061   10.6981 C.3      35      M_A    0.0000
    247 C         196.9098  173.6538    9.8590 C.3      35      M_A    0.0000
    248 O         197.2360  173.8985    8.4920 O.3      35      M_A    0.0000
    249 H         198.2291  175.3456   10.0454 H        35      M_A    0.0000
    250 H         198.5694  174.0528   11.1719 H        35      M_A    0.0000
    251 H         197.1387  172.6119   10.1227 H        35      M_A    0.0000
    252 H         195.8401  173.8369   10.0320 H        35      M_A    0.0000
    253 C         196.1405  173.6151    7.6521 C.3      36      M_A    0.0000
    254 C         195.4011  172.3521    8.0697 C.3      36      M_A    0.0000
    255 O         195.0025  171.6835    6.8743 O.3      36      M_A    0.0000
    256 H         195.4462  174.4639    7.6514 H        36      M_A    0.0000
    257 H         196.4857  173.5132    6.6162 H        36      M_A    0.0000
    258 H         196.0604  171.7045    8.6643 H        36      M_A    0.0000
    259 H         194.5189  172.6094    8.6723 H        36      M_A    0.0000
    260 C         196.1047  171.0691    6.2468 C.3      37      M_A    0.0000
    261 C         195.8486  169.6027    5.9303 C.3      37      M_A    0.0000
    262 O         196.8871  168.8501    6.5549 O.3      37      M_A    0.0000
    263 H         196.3510  171.6067    5.3233 H        37      M_A    0.0000
    264 H         196.9908  171.1575    6.8869 H        37      M_A    0.0000
    265 H         194.8692  169.2945    6.3219 H        37      M_A    0.0000
    266 H         195.8636  169.4398    4.8437 H        37      M_A    0.0000
    267 C         197.1086  167.6346    5.8770 C.3      38      M_A    0.0000
    268 C         195.8152  167.0000    5.3867 C.3      38      M_A    0.0000
    269 O         195.6565  165.7701    6.0916 O.3      38      M_A    0.0000
    270 H         197.7807  167.8027    5.0269 H        38      M_A    0.0000
    271 H         197.6345  166.9340    6.5368 H        38      M_A    0.0000
    272 H         194.9644  167.6654    5.5892 H        38      M_A    0.0000
    273 H         195.8695  166.8127    4.3052 H        38      M_A    0.0000
    274 C         194.6709  165.8843    7.0924 C.3      39      M_A    0.0000
    275 C         194.9167  167.0687    8.0160 C.3      39      M_A    0.0000
    276 O         193.8972  167.0430    9.0133 O.3      39      M_A    0.0000
    277 H         193.6820  165.9796    6.6280 H        39      M_A    0.0000
    278 H         194.6340  164.9602    7.6818 H        39      M_A    0.0000
    279 H         195.9074  166.9865    8.4844 H        39      M_A    0.0000
    280 H         194.8691  168.0091    7.4494 H        39      M_A    0.0000
    281 H         194.0022  167.7867    9.6428 H        39      M_A    0.0000
    282 H         190.5099  241.8535   25.4176 H         0      M_A    0.0000
@<TRIPOS>BOND
     1     1     2      1
     2     1     4      1
     3     1     5      1
     4     1   282      1
     5     2     3      1
     6     2     6      1
     7     2     7      1
     8     3     8      1
     9     8     9      1
    10     8    11      1
    11     8    12      1
    12     9    10      1
    13     9    13      1
    14     9    14      1
    15    10    15      1
    16    15    16      1
    17    15    18      1
    18    15    19      1
    19    16    17      1
    20    16    20      1
    21    16    21      1
    22    17    22      1
    23    22    23      1
    24    22    25      1
    25    22    26      1
    26    23    24      1
    27    23    27      1
    28    23    28      1
    29    24    29      1
    30    29    30      1
    31    29    32      1
    32    29    33      1
    33    30    31      1
    34    30    34      1
    35    30    35      1
    36    31    36      1
    37    36    37      1
    38    36    39      1
    39    36    40      1
    40    37    38      1
    41    37    41      1
    42    37    42      1
    43    38    43      1
    44    43    44      1
    45    43    46      1
    46    43    47      1
    47    44    45      1
    48    44    48      1
    49    44    49      1
    50    45    50      1
    51    50    51      1
    52    50    53      1
    53    50    54      1
    54    51    52      1
    55    51    55      1
    56    51    56      1
    57    52    57      1
    58    57    58      1
    59    57    60      1
    60    57    61      1
    61    58    59      1
    62    58    62      1
    63    58    63      1
    64    59    64      1
    65    64    65      1
    66    64    67      1
    67    64    68      1
    68    65    66      1
    69    65    69      1
    70    65    70      1
    71    66    71      1
    72    71    72      1
    73    71    74      1
    74    71    75      1
    75    72    73      1
    76    72    76      1
    77    72    77      1
    78    73    78      1
    79    78    79      1
    80    78    81      1
    81    78    82      1
    82    79    80      1
    83    79    83      1
    84    79    84      1
    85    80    85      1
    86    85    86      1
    87    85    88      1
    88    85    89      1
    89    86    87      1
    90    86    90      1
    91    86    91      1
    92    87    92      1
    93    92    93      1
    94    92    95      1
    95    92    96      1
    96    93    94      1
    97    93    97      1
    98    93    98      1
    99    94    99      1
   100    99   100      1
   101    99   102      1
   102    99   103      1
   103   100   101      1
   104   100   104      1
   105   100   105      1
   106   101   106      1
   107   106   107      1
   108   106   109      1
   109   106   110      1
   110   107   108      1
   111   107   111      1
   112   107   112      1
   113   108   113      1
   114   113   114      1
   115   113   116      1
   116   113   117      1
   117   114   115      1
   118   114   118      1
   119   114   119      1
   120   115   120      1
   121   120   121      1
   122   120   123      1
   123   120   124      1
   124   121   122      1
   125   121   125      1
   126   121   126      1
   127   122   127      1
   128   127   128      1
   129   127   130      1
   130   127   131      1
   131   128   129      1
   132   128   132      1
   133   128   133      1
   134   129   134      1
   135   134   135      1
   136   134   137      1
   137   134   138      1
   138   135   136      1
   139   135   139      1
   140   135   140      1
   141   136   141      1
   142   141   142      1
   143   141   144      1
   144   141   145      1
   145   142   143      1
   146   142   146      1
   147   142   147      1
   148   143   148      1
   149   148   149      1
   150   148   151      1
   151   148   152      1
   152   149   150      1
   153   149   153      1
   154   149   154      1
   155   150   155      1
   156   155   156      1
   157   155   158      1
   158   155   159      1
   159   156   157      1
   160   156   160      1
   161   156   161      1
   162   157   162      1
   163   162   163      1
   164   162   165      1
   165   162   166      1
   166   163   164      1
   167   163   167      1
   168   163   168      1
   169   164   169      1
   170   169   170      1
   171   169   172      1
   172   169   173      1
   173   170   171      1
   174   170   174      1
   175   170   175      1
   176   171   176      1
   177   176   177      1
   178   176   179      1
   179   176   180      1
   180   177   178      1
   181   177   181      1
   182   177   182      1
   183   178   183      1
   184   183   184      1
   185   183   186      1
   186   183   187      1
   187   184   185      1
   188   184   188      1
   189   184   189      1
   190   185   190      1
   191   190   191      1
   192   190   193      1
   193   190   194      1
   194   191   192      1
   195   191   195      1
   196   191   196      1
   197   192   197      1
   198   197   198      1
   199   197   200      1
   200   197   201      1
   201   198   199      1
   202   198   202      1
   203   198   203      1
   204   199   204      1
   205   204   205      1
   206   204   207      1
   207   204   208      1
   208   205   206      1
   209   205   209      1
   210   205   210      1
   211   206   211      1
   212   211   212      1
   213   211   214      1
   214   211   215      1
   215   212   213      1
   216   212   216      1
   217   212   217      1
   218   213   218      1
   219   218   219      1
   220   218   221      1
   221   218   222      1
   222   219   220      1
   223   219   223      1
   224   219   224      1
   225   220   225      1
   226   225   226      1
   227   225   228      1
   228   225   229      1
   229   226   227      1
   230   226   230      1
   231   226   231      1
   232   227   232      1
   233   232   233      1
   234   232   235      1
   235   232   236      1
   236   233   234      1
   237   233   237      1
   238   233   238      1
   239   234   239      1
   240   239   240      1
   241   239   242      1
   242   239   243      1
   243   240   241      1
   244   240   244      1
   245   240   245      1
   246   241   246      1
   247   246   247      1
   248   246   249      1
   249   246   250      1
   250   247   248      1
   251   247   251      1
   252   247   252      1
   253   248   253      1
   254   253   254      1
   255   253   256      1
   256   253   257      1
   257   254   255      1
   258   254   258      1
   259   254   259      1
   260   255   260      1
   261   260   261      1
   262   260   263      1
   263   260   264      1
   264   261   262      1
   265   261   265      1
   266   261   266      1
   267   262   267      1
   268   267   268      1
   269   267   270      1
   270   267   271      1
   271   268   269      1
   272   268   272      1
   273   268   273      1
   274   269   274      1
   275   274   275      1
   276   274   277      1
   277   274   278      1
   278   275   276      1
   279   275   279      1
   280   275   280      1
   281   276   281      1
