###
### Created by PolyChef-cpp17 on Mon May 12 10:39:12 2025
###

@<TRIPOS>MOLECULE
NO_INFO
156 155 1 0 0
SMALL
USER_CHARGES


@<TRIPOS>ATOM
      1 C         162.7942  191.9185   34.6564 C.3       0      M_A    0.0000
      2 C         163.1286  192.1536   36.1264 C.3       0      M_A    0.0000
      3 O         162.8658  193.5092   36.4888 O.3       0      M_A    0.0000
      4 H         161.7447  192.1840   34.4846 H         0      M_A    0.0000
      5 H         163.4067  192.5514   34.0055 H         0      M_A    0.0000
      6 H         162.5653  191.4538   36.7604 H         0      M_A    0.0000
      7 H         164.1907  191.9610   36.3231 H         0      M_A    0.0000
      8 C         161.6123  193.9415   36.0001 C.3       1      M_A    0.0000
      9 C         160.8384  194.7482   37.0386 C.3       1      M_A    0.0000
     10 O         160.8232  196.1318   36.6878 O.3       1      M_A    0.0000
     11 H         161.0290  193.0522   35.7352 H         1      M_A    0.0000
     12 H         161.7667  194.5214   35.0839 H         1      M_A    0.0000
     13 H         159.8185  194.3512   37.1444 H         1      M_A    0.0000
     14 H         161.3054  194.6652   38.0279 H         1      M_A    0.0000
     15 C         159.8330  196.8372   37.4081 C.3       2      M_A    0.0000
     16 C         160.3506  197.3420   38.7517 C.3       2      M_A    0.0000
     17 O         159.6910  198.5536   39.1190 O.3       2      M_A    0.0000
     18 H         158.9943  196.1541   37.5852 H         2      M_A    0.0000
     19 H         159.4629  197.6632   36.7914 H         2      M_A    0.0000
     20 H         160.2236  196.5681   39.5224 H         2      M_A    0.0000
     21 H         161.4258  197.5550   38.7033 H         2      M_A    0.0000
     22 C         158.2951  198.3675   39.2362 C.3       3      M_A    0.0000
     23 C         157.7407  198.9755   40.5211 C.3       3      M_A    0.0000
     24 O         156.5066  199.6461   40.2657 O.3       3      M_A    0.0000
     25 H         158.0980  197.2893   39.2403 H         3      M_A    0.0000
     26 H         157.8028  198.7907   38.3541 H         3      M_A    0.0000
     27 H         157.6215  198.1973   41.2886 H         3      M_A    0.0000
     28 H         158.4362  199.7149   40.9375 H         3      M_A    0.0000
     29 C         155.8216  199.9436   41.4653 C.3       4      M_A    0.0000
     30 C         154.5536  200.7549   41.2163 C.3       4      M_A    0.0000
     31 O         153.5945  200.5130   42.2457 O.3       4      M_A    0.0000
     32 H         156.4962  200.5267   42.1028 H         4      M_A    0.0000
     33 H         155.5963  199.0087   41.9895 H         4      M_A    0.0000
     34 H         154.7964  201.8245   41.1394 H         4      M_A    0.0000
     35 H         154.0894  200.4749   40.2624 H         4      M_A    0.0000
     36 C         153.8102  201.3530   43.3614 C.3       5      M_A    0.0000
     37 C         152.6662  202.3419   43.5651 C.3       5      M_A    0.0000
     38 O         151.8817  201.9730   44.6993 O.3       5      M_A    0.0000
     39 H         154.7362  201.9129   43.1876 H         5      M_A    0.0000
     40 H         153.9601  200.7330   44.2517 H         5      M_A    0.0000
     41 H         153.0609  203.3631   43.6670 H         5      M_A    0.0000
     42 H         151.9988  202.3550   42.6943 H         5      M_A    0.0000
     43 C         150.9426  200.9684   44.3739 C.3       6      M_A    0.0000
     44 C         149.8311  200.8632   45.4139 C.3       6      M_A    0.0000
     45 O         148.5531  200.8290   44.7788 O.3       6      M_A    0.0000
     46 H         151.4753  200.0118   44.3263 H         6      M_A    0.0000
     47 H         150.5342  201.1701   43.3779 H         6      M_A    0.0000
     48 H         149.9866  199.9780   46.0474 H         6      M_A    0.0000
     49 H         149.8402  201.7293   46.0873 H         6      M_A    0.0000
     50 C         148.2407  199.5314   44.3146 C.3       7      M_A    0.0000
     51 C         148.0209  198.5489   45.4611 C.3       7      M_A    0.0000
     52 O         146.6297  198.2742   45.6250 O.3       7      M_A    0.0000
     53 H         149.0803  199.1810   43.7034 H         7      M_A    0.0000
     54 H         147.3595  199.5862   43.6665 H         7      M_A    0.0000
     55 H         148.5927  197.6263   45.2852 H         7      M_A    0.0000
     56 H         148.3879  198.9628   46.4086 H         7      M_A    0.0000
     57 C         146.2942  196.9923   45.1338 C.3       8      M_A    0.0000
     58 C         145.1252  196.3737   45.8948 C.3       8      M_A    0.0000
     59 O         144.2438  195.6999   44.9965 O.3       8      M_A    0.0000
     60 H         147.1728  196.3471   45.2481 H         8      M_A    0.0000
     61 H         146.0743  197.0661   44.0634 H         8      M_A    0.0000
     62 H         145.4974  195.6942   46.6749 H         8      M_A    0.0000
     63 H         144.5408  197.1453   46.4115 H         8      M_A    0.0000
     64 C         143.3717  194.8269   45.6852 C.3       9      M_A    0.0000
     65 C         142.6620  195.5207   46.8441 C.3       9      M_A    0.0000
     66 O         141.8584  194.5893   47.5684 O.3       9      M_A    0.0000
     67 H         143.9687  193.9971   46.0807 H         9      M_A    0.0000
     68 H         142.6514  194.4075   44.9747 H         9      M_A    0.0000
     69 H         143.3961  196.0104   47.5001 H         9      M_A    0.0000
     70 H         141.9975  196.3138   46.4792 H         9      M_A    0.0000
     71 C         141.9907  194.7677   48.9640 C.3      10      M_A    0.0000
     72 C         142.7502  193.6185   49.6203 C.3      10      M_A    0.0000
     73 O         143.4728  194.0828   50.7605 O.3      10      M_A    0.0000
     74 H         140.9839  194.8187   49.3941 H        10      M_A    0.0000
     75 H         142.4821  195.7274   49.1566 H        10      M_A    0.0000
     76 H         142.0560  192.8094   49.8891 H        10      M_A    0.0000
     77 H         143.4783  193.1817   48.9254 H        10      M_A    0.0000
     78 C         142.6464  194.8349   51.6256 C.3      11      M_A    0.0000
     79 C         142.2296  194.0379   52.8581 C.3      11      M_A    0.0000
     80 O         143.0407  194.3893   53.9791 O.3      11      M_A    0.0000
     81 H         141.7473  195.1215   51.0680 H        11      M_A    0.0000
     82 H         143.1685  195.7554   51.9079 H        11      M_A    0.0000
     83 H         141.1627  194.1980   53.0707 H        11      M_A    0.0000
     84 H         142.3517  192.9608   52.6890 H        11      M_A    0.0000
     85 C         142.3048  194.3438   55.1846 C.3      12      M_A    0.0000
     86 C         142.7702  193.2145   56.0991 C.3      12      M_A    0.0000
     87 O         143.3525  193.7432   57.2905 O.3      12      M_A    0.0000
     88 H         141.2510  194.1824   54.9302 H        12      M_A    0.0000
     89 H         142.3796  195.3147   55.6858 H        12      M_A    0.0000
     90 H         141.9314  192.5417   56.3285 H        12      M_A    0.0000
     91 H         143.5329  192.5990   55.6059 H        12      M_A    0.0000
     92 C         144.0134  192.7388   58.0329 C.3      13      M_A    0.0000
     93 C         145.0397  191.9850   57.1922 C.3      13      M_A    0.0000
     94 O         145.6629  190.9589   57.9647 O.3      13      M_A    0.0000
     95 H         143.2570  192.0299   58.3887 H        13      M_A    0.0000
     96 H         144.4807  193.1938   58.9127 H        13      M_A    0.0000
     97 H         144.5632  191.5733   56.2909 H        13      M_A    0.0000
     98 H         145.8313  192.6590   56.8417 H        13      M_A    0.0000
     99 C         145.0279  189.7109   57.7752 C.3      14      M_A    0.0000
    100 C         145.2391  189.1675   56.3651 C.3      14      M_A    0.0000
    101 O         145.2997  187.7414   56.3822 O.3      14      M_A    0.0000
    102 H         143.9540  189.8501   57.9443 H        14      M_A    0.0000
    103 H         145.3933  189.0058   58.5293 H        14      M_A    0.0000
    104 H         144.4427  189.5259   55.6970 H        14      M_A    0.0000
    105 H         146.1835  189.5314   55.9415 H        14      M_A    0.0000
    106 C         145.6766  187.2245   55.1221 C.3      15      M_A    0.0000
    107 C         145.2086  185.7852   54.9286 C.3      15      M_A    0.0000
    108 O         144.7450  185.5849   53.5934 O.3      15      M_A    0.0000
    109 H         146.7704  187.2532   55.0596 H        15      M_A    0.0000
    110 H         145.2827  187.8773   54.3358 H        15      M_A    0.0000
    111 H         146.0189  185.0857   55.1797 H        15      M_A    0.0000
    112 H         144.3770  185.5486   55.6041 H        15      M_A    0.0000
    113 C         145.6010  184.7220   52.8726 C.3      16      M_A    0.0000
    114 C         144.8246  183.6875   52.0632 C.3      16      M_A    0.0000
    115 O         145.5915  183.2521   50.9407 O.3      16      M_A    0.0000
    116 H         146.2397  184.2006   53.5948 H        16      M_A    0.0000
    117 H         146.2519  185.3215   52.2273 H        16      M_A    0.0000
    118 H         144.5379  182.8414   52.7042 H        16      M_A    0.0000
    119 H         143.8895  184.1123   51.6773 H        16      M_A    0.0000
    120 C         145.2559  181.9315   50.5659 C.3      17      M_A    0.0000
    121 C         144.3539  181.8955   49.3358 C.3      17      M_A    0.0000
    122 O         144.5632  180.6922   48.5968 O.3      17      M_A    0.0000
    123 H         144.7280  181.4666   51.4064 H        17      M_A    0.0000
    124 H         146.1767  181.3629   50.3978 H        17      M_A    0.0000
    125 H         143.3011  182.0037   49.6339 H        17      M_A    0.0000
    126 H         144.5719  182.7355   48.6644 H        17      M_A    0.0000
    127 C         143.5139  180.4595   47.6794 C.3      18      M_A    0.0000
    128 C         143.6100  179.0796   47.0352 C.3      18      M_A    0.0000
    129 O         142.3716  178.3810   47.1616 O.3      18      M_A    0.0000
    130 H         143.5769  181.2222   46.8948 H        18      M_A    0.0000
    131 H         142.5552  180.5904   48.1923 H        18      M_A    0.0000
    132 H         143.9110  179.1727   45.9818 H        18      M_A    0.0000
    133 H         144.3817  178.4713   47.5234 H        18      M_A    0.0000
    134 C         142.2354  177.3858   46.1675 C.3      19      M_A    0.0000
    135 C         143.4840  176.5167   46.0503 C.3      19      M_A    0.0000
    136 O         143.1251  175.1475   45.8652 O.3      19      M_A    0.0000
    137 H         142.0620  177.8885   45.2091 H        19      M_A    0.0000
    138 H         141.3507  176.7791   46.3882 H        19      M_A    0.0000
    139 H         144.1218  176.8773   45.2305 H        19      M_A    0.0000
    140 H         144.0911  176.5768   46.9622 H        19      M_A    0.0000
    141 C         144.2187  174.3849   45.3971 C.3      20      M_A    0.0000
    142 C         143.7697  173.1912   44.5595 C.3      20      M_A    0.0000
    143 O         144.8459  172.7125   43.7530 O.3      20      M_A    0.0000
    144 H         144.7717  174.0180   46.2694 H        20      M_A    0.0000
    145 H         144.8912  175.0361   44.8286 H        20      M_A    0.0000
    146 H         143.3743  172.3981   45.2104 H        20      M_A    0.0000
    147 H         142.9520  173.4712   43.8836 H        20      M_A    0.0000
    148 C         145.1568  173.6190   42.7145 C.3      21      M_A    0.0000
    149 C         145.0362  175.0718   43.1652 C.3      21      M_A    0.0000
    150 O         144.4315  175.8642   42.1434 O.3      21      M_A    0.0000
    151 H         144.4538  173.4434   41.8921 H        21      M_A    0.0000
    152 H         146.1637  173.4033   42.3413 H        21      M_A    0.0000
    153 H         144.4696  175.1316   44.1056 H        21      M_A    0.0000
    154 H         146.0241  175.5017   43.3729 H        21      M_A    0.0000
    155 H         143.4611  175.9270   42.2653 H        21      M_A    0.0000
    156 H         162.9278  190.8761   34.3670 H         0      M_A    0.0000
@<TRIPOS>BOND
     1     1     2      1
     2     1     4      1
     3     1     5      1
     4     1   156      1
     5     2     3      1
     6     2     6      1
     7     2     7      1
     8     3     8      1
     9     8     9      1
    10     8    11      1
    11     8    12      1
    12     9    10      1
    13     9    13      1
    14     9    14      1
    15    10    15      1
    16    15    16      1
    17    15    18      1
    18    15    19      1
    19    16    17      1
    20    16    20      1
    21    16    21      1
    22    17    22      1
    23    22    23      1
    24    22    25      1
    25    22    26      1
    26    23    24      1
    27    23    27      1
    28    23    28      1
    29    24    29      1
    30    29    30      1
    31    29    32      1
    32    29    33      1
    33    30    31      1
    34    30    34      1
    35    30    35      1
    36    31    36      1
    37    36    37      1
    38    36    39      1
    39    36    40      1
    40    37    38      1
    41    37    41      1
    42    37    42      1
    43    38    43      1
    44    43    44      1
    45    43    46      1
    46    43    47      1
    47    44    45      1
    48    44    48      1
    49    44    49      1
    50    45    50      1
    51    50    51      1
    52    50    53      1
    53    50    54      1
    54    51    52      1
    55    51    55      1
    56    51    56      1
    57    52    57      1
    58    57    58      1
    59    57    60      1
    60    57    61      1
    61    58    59      1
    62    58    62      1
    63    58    63      1
    64    59    64      1
    65    64    65      1
    66    64    67      1
    67    64    68      1
    68    65    66      1
    69    65    69      1
    70    65    70      1
    71    66    71      1
    72    71    72      1
    73    71    74      1
    74    71    75      1
    75    72    73      1
    76    72    76      1
    77    72    77      1
    78    73    78      1
    79    78    79      1
    80    78    81      1
    81    78    82      1
    82    79    80      1
    83    79    83      1
    84    79    84      1
    85    80    85      1
    86    85    86      1
    87    85    88      1
    88    85    89      1
    89    86    87      1
    90    86    90      1
    91    86    91      1
    92    87    92      1
    93    92    93      1
    94    92    95      1
    95    92    96      1
    96    93    94      1
    97    93    97      1
    98    93    98      1
    99    94    99      1
   100    99   100      1
   101    99   102      1
   102    99   103      1
   103   100   101      1
   104   100   104      1
   105   100   105      1
   106   101   106      1
   107   106   107      1
   108   106   109      1
   109   106   110      1
   110   107   108      1
   111   107   111      1
   112   107   112      1
   113   108   113      1
   114   113   114      1
   115   113   116      1
   116   113   117      1
   117   114   115      1
   118   114   118      1
   119   114   119      1
   120   115   120      1
   121   120   121      1
   122   120   123      1
   123   120   124      1
   124   121   122      1
   125   121   125      1
   126   121   126      1
   127   122   127      1
   128   127   128      1
   129   127   130      1
   130   127   131      1
   131   128   129      1
   132   128   132      1
   133   128   133      1
   134   129   134      1
   135   134   135      1
   136   134   137      1
   137   134   138      1
   138   135   136      1
   139   135   139      1
   140   135   140      1
   141   136   141      1
   142   141   142      1
   143   141   144      1
   144   141   145      1
   145   142   143      1
   146   142   146      1
   147   142   147      1
   148   143   148      1
   149   148   149      1
   150   148   151      1
   151   148   152      1
   152   149   150      1
   153   149   153      1
   154   149   154      1
   155   150   155      1
