###
### Created by PolyChef-cpp17 on Mon May 12 10:39:12 2025
###

@<TRIPOS>MOLECULE
NO_INFO
163 162 1 0 0
SMALL
USER_CHARGES


@<TRIPOS>ATOM
      1 C         168.4501  270.1827   67.5145 C.3       0      M_A    0.0000
      2 C         168.9260  271.0512   66.3538 C.3       0      M_A    0.0000
      3 O         167.9653  272.0657   66.0611 O.3       0      M_A    0.0000
      4 H         167.6159  270.6542   68.0449 H         0      M_A    0.0000
      5 H         168.0921  269.2257   67.1178 H         0      M_A    0.0000
      6 H         169.8696  271.5536   66.6005 H         0      M_A    0.0000
      7 H         169.1299  270.4272   65.4717 H         0      M_A    0.0000
      8 C         166.7379  271.8205   66.7170 C.3       1      M_A    0.0000
      9 C         166.2071  270.4178   66.4362 C.3       1      M_A    0.0000
     10 O         164.8794  270.4802   65.9153 O.3       1      M_A    0.0000
     11 H         166.0133  272.5849   66.4167 H         1      M_A    0.0000
     12 H         166.9047  271.9272   67.7950 H         1      M_A    0.0000
     13 H         166.8283  269.9047   65.6916 H         1      M_A    0.0000
     14 H         166.2502  269.8060   67.3487 H         1      M_A    0.0000
     15 C         163.9171  270.2391   66.9216 C.3       2      M_A    0.0000
     16 C         162.5128  270.0794   66.3467 C.3       2      M_A    0.0000
     17 O         161.5434  270.6431   67.2301 O.3       2      M_A    0.0000
     18 H         163.9544  271.0526   67.6539 H         2      M_A    0.0000
     19 H         164.1956  269.3141   67.4394 H         2      M_A    0.0000
     20 H         162.4212  270.5981   65.3843 H         2      M_A    0.0000
     21 H         162.3029  269.0187   66.1469 H         2      M_A    0.0000
     22 C         160.4634  271.2117   66.5179 C.3       3      M_A    0.0000
     23 C         159.1380  270.5297   66.8439 C.3       3      M_A    0.0000
     24 O         158.4118  270.2492   65.6473 O.3       3      M_A    0.0000
     25 H         160.6787  271.1649   65.4450 H         3      M_A    0.0000
     26 H         160.3957  272.2696   66.7965 H         3      M_A    0.0000
     27 H         159.3039  269.5752   67.3588 H         3      M_A    0.0000
     28 H         158.5494  271.1535   67.5319 H         3      M_A    0.0000
     29 C         157.6009  269.1010   65.7915 C.3       4      M_A    0.0000
     30 C         156.1168  269.4500   65.8518 C.3       4      M_A    0.0000
     31 O         155.4923  268.7921   66.9541 O.3       4      M_A    0.0000
     32 H         157.9145  268.5520   66.6858 H         4      M_A    0.0000
     33 H         157.7778  268.4526   64.9257 H         4      M_A    0.0000
     34 H         155.9725  270.5290   65.9885 H         4      M_A    0.0000
     35 H         155.6271  269.1909   64.9020 H         4      M_A    0.0000
     36 C         154.1656  269.2416   67.1406 C.3       5      M_A    0.0000
     37 C         153.2481  268.1303   67.6419 C.3       5      M_A    0.0000
     38 O         151.8796  268.4787   67.4326 O.3       5      M_A    0.0000
     39 H         153.7964  269.6651   66.2005 H         5      M_A    0.0000
     40 H         154.1841  270.0479   67.8827 H         5      M_A    0.0000
     41 H         153.4348  267.1936   67.1021 H         5      M_A    0.0000
     42 H         153.4498  267.9211   68.7023 H         5      M_A    0.0000
     43 C         151.4014  269.3321   68.4523 C.3       6      M_A    0.0000
     44 C         150.1719  268.7591   69.1510 C.3       6      M_A    0.0000
     45 O         149.5133  269.7700   69.9141 O.3       6      M_A    0.0000
     46 H         151.1891  270.3173   68.0235 H         6      M_A    0.0000
     47 H         152.2022  269.4574   69.1900 H         6      M_A    0.0000
     48 H         149.4487  268.3752   68.4208 H         6      M_A    0.0000
     49 H         150.4574  267.9046   69.7813 H         6      M_A    0.0000
     50 C         150.0492  269.8651   71.2182 C.3       7      M_A    0.0000
     51 C         149.1637  269.1790   72.2542 C.3       7      M_A    0.0000
     52 O         148.7596  270.1073   73.2606 O.3       7      M_A    0.0000
     53 H         150.2018  270.9210   71.4657 H         7      M_A    0.0000
     54 H         151.0320  269.3800   71.2148 H         7      M_A    0.0000
     55 H         148.2529  268.7805   71.7901 H         7      M_A    0.0000
     56 H         149.6891  268.3181   72.6921 H         7      M_A    0.0000
     57 C         148.3203  269.4448   74.4290 C.3       8      M_A    0.0000
     58 C         147.6446  270.3983   75.4100 C.3       8      M_A    0.0000
     59 O         147.9490  270.0307   76.7554 O.3       8      M_A    0.0000
     60 H         149.1724  268.9377   74.8940 H         8      M_A    0.0000
     61 H         147.5999  268.6752   74.1293 H         8      M_A    0.0000
     62 H         147.9963  271.4271   75.2630 H         8      M_A    0.0000
     63 H         146.5591  270.4153   75.2360 H         8      M_A    0.0000
     64 C         147.5386  271.0273   77.6693 C.3       9      M_A    0.0000
     65 C         147.9867  270.7187   79.0948 C.3       9      M_A    0.0000
     66 O         147.0679  271.2692   80.0385 O.3       9      M_A    0.0000
     67 H         146.4505  271.1383   77.6123 H         9      M_A    0.0000
     68 H         147.9856  271.9774   77.3551 H         9      M_A    0.0000
     69 H         148.0264  269.6360   79.2682 H         9      M_A    0.0000
     70 H         149.0059  271.0957   79.2623 H         9      M_A    0.0000
     71 C         147.0277  272.6795   79.9591 C.3      10      M_A    0.0000
     72 C         146.2531  273.2981   81.1191 C.3      10      M_A    0.0000
     73 O         144.9262  273.6330   80.7127 O.3      10      M_A    0.0000
     74 H         146.5963  272.9710   78.9955 H        10      M_A    0.0000
     75 H         148.0596  273.0480   79.9853 H        10      M_A    0.0000
     76 H         146.1724  272.5943   81.9568 H        10      M_A    0.0000
     77 H         146.7871  274.1781   81.5055 H        10      M_A    0.0000
     78 C         143.9637  273.0991   81.5989 C.3      11      M_A    0.0000
     79 C         143.4248  274.1516   82.5632 C.3      11      M_A    0.0000
     80 O         143.0042  273.5432   83.7842 O.3      11      M_A    0.0000
     81 H         144.4054  272.2560   82.1406 H        11      M_A    0.0000
     82 H         143.1331  272.7093   80.9993 H        11      M_A    0.0000
     83 H         144.1987  274.8882   82.8129 H        11      M_A    0.0000
     84 H         142.6046  274.7129   82.0929 H        11      M_A    0.0000
     85 C         141.9315  272.6478   83.5732 C.3      12      M_A    0.0000
     86 C         141.2247  272.2816   84.8749 C.3      12      M_A    0.0000
     87 O         140.1016  271.4396   84.6148 O.3      12      M_A    0.0000
     88 H         142.3068  271.7546   83.0623 H        12      M_A    0.0000
     89 H         141.2127  273.1348   82.9043 H        12      M_A    0.0000
     90 H         141.8976  271.7336   85.5462 H        12      M_A    0.0000
     91 H         140.9256  273.1922   85.4135 H        12      M_A    0.0000
     92 C         139.5425  270.9387   85.8120 C.3      13      M_A    0.0000
     93 C         138.0615  270.6051   85.6585 C.3      13      M_A    0.0000
     94 O         137.2686  271.7875   85.7644 O.3      13      M_A    0.0000
     95 H         139.7025  271.6678   86.6135 H        13      M_A    0.0000
     96 H         140.0855  270.0255   86.0814 H        13      M_A    0.0000
     97 H         137.8590  270.1607   84.6761 H        13      M_A    0.0000
     98 H         137.7622  269.8548   86.4044 H        13      M_A    0.0000
     99 C         137.8142  272.8461   85.0037 C.3      14      M_A    0.0000
    100 C         136.8783  273.2896   83.8832 C.3      14      M_A    0.0000
    101 O         137.0482  272.4623   82.7323 O.3      14      M_A    0.0000
    102 H         138.7870  272.5366   84.6070 H        14      M_A    0.0000
    103 H         137.9855  273.6926   85.6786 H        14      M_A    0.0000
    104 H         135.8289  273.2095   84.1934 H        14      M_A    0.0000
    105 H         137.0493  274.3489   83.6431 H        14      M_A    0.0000
    106 C         136.0017  271.5203   82.6134 C.3      15      M_A    0.0000
    107 C         135.4126  271.4911   81.2062 C.3      15      M_A    0.0000
    108 O         134.2635  270.6453   81.1622 O.3      15      M_A    0.0000
    109 H         135.2321  271.7450   83.3596 H        15      M_A    0.0000
    110 H         136.4110  270.5307   82.8470 H        15      M_A    0.0000
    111 H         135.0951  272.4934   80.8927 H        15      M_A    0.0000
    112 H         136.1747  271.1682   80.4824 H        15      M_A    0.0000
    113 C         134.3861  269.6579   80.1587 C.3      16      M_A    0.0000
    114 C         133.3223  269.8055   79.0749 C.3      16      M_A    0.0000
    115 O         132.7827  268.5307   78.7265 O.3      16      M_A    0.0000
    116 H         134.3413  268.6677   80.6244 H        16      M_A    0.0000
    117 H         135.3761  269.7643   79.7006 H        16      M_A    0.0000
    118 H         132.4905  270.4302   79.4237 H        16      M_A    0.0000
    119 H         133.7437  270.3150   78.1964 H        16      M_A    0.0000
    120 C         131.6309  268.6600   77.9180 C.3      17      M_A    0.0000
    121 C         130.4377  269.2001   78.7008 C.3      17      M_A    0.0000
    122 O         129.2478  268.4940   78.3495 O.3      17      M_A    0.0000
    123 H         131.4007  267.6893   77.4661 H        17      M_A    0.0000
    124 H         131.8663  269.3566   77.1052 H        17      M_A    0.0000
    125 H         130.5873  269.0750   79.7804 H        17      M_A    0.0000
    126 H         130.3276  270.2802   78.5274 H        17      M_A    0.0000
    127 C         129.2476  268.1274   76.9848 C.3      18      M_A    0.0000
    128 C         127.8484  268.1739   76.3780 C.3      18      M_A    0.0000
    129 O         127.4103  266.8608   76.0290 O.3      18      M_A    0.0000
    130 H         129.6899  267.1308   76.8824 H        18      M_A    0.0000
    131 H         129.8911  268.8326   76.4464 H        18      M_A    0.0000
    132 H         127.1237  268.5827   77.0932 H        18      M_A    0.0000
    133 H         127.8346  268.8448   75.5070 H        18      M_A    0.0000
    134 C         128.4212  266.1410   75.3530 C.3      19      M_A    0.0000
    135 C         128.2032  266.1259   73.8429 C.3      19      M_A    0.0000
    136 O         127.8256  264.8207   73.4049 O.3      19      M_A    0.0000
    137 H         128.4659  265.1237   75.7562 H        19      M_A    0.0000
    138 H         129.3807  266.6252   75.5679 H        19      M_A    0.0000
    139 H         127.3988  266.8144   73.5554 H        19      M_A    0.0000
    140 H         129.1082  266.4751   73.3253 H        19      M_A    0.0000
    141 C         128.3781  264.5198   72.1396 C.3      20      M_A    0.0000
    142 C         127.3416  263.9345   71.1849 C.3      20      M_A    0.0000
    143 O         127.8997  262.8491   70.4445 O.3      20      M_A    0.0000
    144 H         129.2237  263.8365   72.2722 H        20      M_A    0.0000
    145 H         128.7681  265.4506   71.7122 H        20      M_A    0.0000
    146 H         126.4760  263.5459   71.7357 H        20      M_A    0.0000
    147 H         126.9560  264.7180   70.5168 H        20      M_A    0.0000
    148 C         127.0434  262.4440   69.3959 C.3      21      M_A    0.0000
    149 C         125.6575  262.0568   69.9034 C.3      21      M_A    0.0000
    150 O         125.2815  260.7740   69.4026 O.3      21      M_A    0.0000
    151 H         127.5110  261.6160   68.8525 H        21      M_A    0.0000
    152 H         126.9438  263.2838   68.6987 H        21      M_A    0.0000
    153 H         125.6426  261.9990   70.9989 H        21      M_A    0.0000
    154 H         124.9228  262.8259   69.6247 H        21      M_A    0.0000
    155 C         126.1707  260.3300   68.3980 C.3      22      M_A    0.0000
    156 C         127.0044  261.4716   67.8238 C.3      22      M_A    0.0000
    157 O         128.2645  260.9869   67.3598 O.3      22      M_A    0.0000
    158 H         125.5989  259.8242   67.6127 H        22      M_A    0.0000
    159 H         126.8436  259.5903   68.8466 H        22      M_A    0.0000
    160 H         126.4970  261.9374   66.9699 H        22      M_A    0.0000
    161 H         127.1330  262.2632   68.5759 H        22      M_A    0.0000
    162 H         128.9544  261.0616   68.0517 H        22      M_A    0.0000
    163 H         169.2500  269.9729   68.2246 H         0      M_A    0.0000
@<TRIPOS>BOND
     1     1     2      1
     2     1     4      1
     3     1     5      1
     4     1   163      1
     5     2     3      1
     6     2     6      1
     7     2     7      1
     8     3     8      1
     9     8     9      1
    10     8    11      1
    11     8    12      1
    12     9    10      1
    13     9    13      1
    14     9    14      1
    15    10    15      1
    16    15    16      1
    17    15    18      1
    18    15    19      1
    19    16    17      1
    20    16    20      1
    21    16    21      1
    22    17    22      1
    23    22    23      1
    24    22    25      1
    25    22    26      1
    26    23    24      1
    27    23    27      1
    28    23    28      1
    29    24    29      1
    30    29    30      1
    31    29    32      1
    32    29    33      1
    33    30    31      1
    34    30    34      1
    35    30    35      1
    36    31    36      1
    37    36    37      1
    38    36    39      1
    39    36    40      1
    40    37    38      1
    41    37    41      1
    42    37    42      1
    43    38    43      1
    44    43    44      1
    45    43    46      1
    46    43    47      1
    47    44    45      1
    48    44    48      1
    49    44    49      1
    50    45    50      1
    51    50    51      1
    52    50    53      1
    53    50    54      1
    54    51    52      1
    55    51    55      1
    56    51    56      1
    57    52    57      1
    58    57    58      1
    59    57    60      1
    60    57    61      1
    61    58    59      1
    62    58    62      1
    63    58    63      1
    64    59    64      1
    65    64    65      1
    66    64    67      1
    67    64    68      1
    68    65    66      1
    69    65    69      1
    70    65    70      1
    71    66    71      1
    72    71    72      1
    73    71    74      1
    74    71    75      1
    75    72    73      1
    76    72    76      1
    77    72    77      1
    78    73    78      1
    79    78    79      1
    80    78    81      1
    81    78    82      1
    82    79    80      1
    83    79    83      1
    84    79    84      1
    85    80    85      1
    86    85    86      1
    87    85    88      1
    88    85    89      1
    89    86    87      1
    90    86    90      1
    91    86    91      1
    92    87    92      1
    93    92    93      1
    94    92    95      1
    95    92    96      1
    96    93    94      1
    97    93    97      1
    98    93    98      1
    99    94    99      1
   100    99   100      1
   101    99   102      1
   102    99   103      1
   103   100   101      1
   104   100   104      1
   105   100   105      1
   106   101   106      1
   107   106   107      1
   108   106   109      1
   109   106   110      1
   110   107   108      1
   111   107   111      1
   112   107   112      1
   113   108   113      1
   114   113   114      1
   115   113   116      1
   116   113   117      1
   117   114   115      1
   118   114   118      1
   119   114   119      1
   120   115   120      1
   121   120   121      1
   122   120   123      1
   123   120   124      1
   124   121   122      1
   125   121   125      1
   126   121   126      1
   127   122   127      1
   128   127   128      1
   129   127   130      1
   130   127   131      1
   131   128   129      1
   132   128   132      1
   133   128   133      1
   134   129   134      1
   135   134   135      1
   136   134   137      1
   137   134   138      1
   138   135   136      1
   139   135   139      1
   140   135   140      1
   141   136   141      1
   142   141   142      1
   143   141   144      1
   144   141   145      1
   145   142   143      1
   146   142   146      1
   147   142   147      1
   148   143   148      1
   149   148   149      1
   150   148   151      1
   151   148   152      1
   152   149   150      1
   153   149   153      1
   154   149   154      1
   155   150   155      1
   156   155   156      1
   157   155   158      1
   158   155   159      1
   159   156   157      1
   160   156   160      1
   161   156   161      1
   162   157   162      1
