###
### Created by PolyChef-cpp17 on Mon May 12 10:39:11 2025
###

@<TRIPOS>MOLECULE
NO_INFO
618 617 1 0 0
SMALL
USER_CHARGES


@<TRIPOS>ATOM
      1 C         196.0609  192.4500   91.0558 C.3       0      M_A    0.0000
      2 C         196.6850  191.4949   90.0427 C.3       0      M_A    0.0000
      3 O         198.1095  191.5756   90.0905 O.3       0      M_A    0.0000
      4 H         195.7040  191.8712   91.9155 H         0      M_A    0.0000
      5 H         196.7976  193.1713   91.4251 H         0      M_A    0.0000
      6 H         196.3363  190.4681   90.2243 H         0      M_A    0.0000
      7 H         196.3757  191.7493   89.0212 H         0      M_A    0.0000
      8 C         198.5493  192.2856   91.2303 C.3       1      M_A    0.0000
      9 C         199.9233  191.8193   91.7024 C.3       1      M_A    0.0000
     10 O         200.9554  192.5197   91.0081 O.3       1      M_A    0.0000
     11 H         197.8226  192.1175   92.0333 H         1      M_A    0.0000
     12 H         198.5517  193.3574   91.0048 H         1      M_A    0.0000
     13 H         200.0146  191.9482   92.7905 H         1      M_A    0.0000
     14 H         200.0634  190.7489   91.5061 H         1      M_A    0.0000
     15 C         202.2294  191.9786   91.2927 C.3       2      M_A    0.0000
     16 C         202.4165  190.5955   90.6759 C.3       2      M_A    0.0000
     17 O         203.6004  190.5589   89.8791 O.3       2      M_A    0.0000
     18 H         202.3255  191.8972   92.3814 H         2      M_A    0.0000
     19 H         202.9995  192.6746   90.9434 H         2      M_A    0.0000
     20 H         202.4408  189.8289   91.4637 H         2      M_A    0.0000
     21 H         201.5729  190.3396   90.0228 H         2      M_A    0.0000
     22 C         204.6236  191.3588   90.4359 C.3       3      M_A    0.0000
     23 C         205.9516  191.1828   89.7055 C.3       3      M_A    0.0000
     24 O         206.5643  192.4502   89.4687 O.3       3      M_A    0.0000
     25 H         204.7525  191.0606   91.4827 H         3      M_A    0.0000
     26 H         204.3033  192.4061   90.4269 H         3      M_A    0.0000
     27 H         206.6148  190.5188   90.2785 H         3      M_A    0.0000
     28 H         205.8026  190.7026   88.7303 H         3      M_A    0.0000
     29 C         207.9179  192.4541   89.8745 C.3       4      M_A    0.0000
     30 C         208.6535  193.7070   89.4082 C.3       4      M_A    0.0000
     31 O         209.0618  194.4933   90.5275 O.3       4      M_A    0.0000
     32 H         208.4035  191.5744   89.4369 H         4      M_A    0.0000
     33 H         207.9647  192.3507   90.9639 H         4      M_A    0.0000
     34 H         209.5119  193.4310   88.7790 H         4      M_A    0.0000
     35 H         208.0040  194.3346   88.7853 H         4      M_A    0.0000
     36 C         209.2818  195.8402   90.1607 C.3       5      M_A    0.0000
     37 C         210.7529  196.2311   90.2661 C.3       5      M_A    0.0000
     38 O         211.0817  197.2122   89.2827 O.3       5      M_A    0.0000
     39 H         208.6972  196.4736   90.8377 H         5      M_A    0.0000
     40 H         208.9018  196.0008   89.1461 H         5      M_A    0.0000
     41 H         210.9783  196.5905   91.2805 H         5      M_A    0.0000
     42 H         211.4027  195.3638   90.0951 H         5      M_A    0.0000
     43 C         209.9238  197.8406   88.7716 C.3       6      M_A    0.0000
     44 C         210.1441  199.3284   88.5144 C.3       6      M_A    0.0000
     45 O         209.7301  199.6745   87.1928 O.3       6      M_A    0.0000
     46 H         209.1228  197.7233   89.5104 H         6      M_A    0.0000
     47 H         209.6103  197.3237   87.8583 H         6      M_A    0.0000
     48 H         209.6136  199.9266   89.2691 H         6      M_A    0.0000
     49 H         211.2059  199.5895   88.6050 H         6      M_A    0.0000
     50 C         210.4137  200.8170   86.7192 C.3       7      M_A    0.0000
     51 C         209.6338  201.5403   85.6252 C.3       7      M_A    0.0000
     52 O         209.5528  202.9370   85.9085 O.3       7      M_A    0.0000
     53 H         211.3761  200.4885   86.3104 H         7      M_A    0.0000
     54 H         210.6224  201.4837   87.5626 H         7      M_A    0.0000
     55 H         210.0968  201.3572   84.6449 H         7      M_A    0.0000
     56 H         208.6073  201.1588   85.5572 H         7      M_A    0.0000
     57 C         208.5190  203.5555   85.1697 C.3       8      M_A    0.0000
     58 C         208.1805  204.9429   85.7068 C.3       8      M_A    0.0000
     59 O         207.3721  205.6578   84.7723 O.3       8      M_A    0.0000
     60 H         207.6282  202.9209   85.2404 H         8      M_A    0.0000
     61 H         208.8110  203.6003   84.1151 H         8      M_A    0.0000
     62 H         207.6838  204.8607   86.6843 H         8      M_A    0.0000
     63 H         209.0907  205.5327   85.8724 H         8      M_A    0.0000
     64 C         207.6393  207.0449   84.8121 C.3       9      M_A    0.0000
     65 C         206.3627  207.8723   84.9298 C.3       9      M_A    0.0000
     66 O         206.5424  208.9401   85.8600 O.3       9      M_A    0.0000
     67 H         208.1530  207.3159   83.8827 H         9      M_A    0.0000
     68 H         208.3233  207.2533   85.6416 H         9      M_A    0.0000
     69 H         206.0623  208.2492   83.9416 H         9      M_A    0.0000
     70 H         205.5287  207.2581   85.2918 H         9      M_A    0.0000
     71 C         205.3108  209.3558   86.4145 C.3      10      M_A    0.0000
     72 C         204.9818  210.8034   86.0616 C.3      10      M_A    0.0000
     73 O         203.6205  210.9207   85.6481 O.3      10      M_A    0.0000
     74 H         205.3839  209.2643   87.5042 H        10      M_A    0.0000
     75 H         204.5200  208.6773   86.0774 H        10      M_A    0.0000
     76 H         205.1984  211.4608   86.9159 H        10      M_A    0.0000
     77 H         205.6084  211.1578   85.2336 H        10      M_A    0.0000
     78 C         202.7380  210.8575   86.7500 C.3      11      M_A    0.0000
     79 C         201.8968  212.1232   86.8852 C.3      11      M_A    0.0000
     80 O         200.5742  211.8997   86.3966 O.3      11      M_A    0.0000
     81 H         203.3402  210.7333   87.6573 H        11      M_A    0.0000
     82 H         202.1039  209.9702   86.6494 H        11      M_A    0.0000
     83 H         201.8848  212.4609   87.9316 H        11      M_A    0.0000
     84 H         202.3282  212.9456   86.3011 H        11      M_A    0.0000
     85 C         199.6693  212.8645   86.8937 C.3      12      M_A    0.0000
     86 C         198.4338  213.0023   86.0091 C.3      12      M_A    0.0000
     87 O         197.3690  212.1920   86.5067 O.3      12      M_A    0.0000
     88 H         200.1898  213.8285   86.9284 H        12      M_A    0.0000
     89 H         199.3932  212.6002   87.9200 H        12      M_A    0.0000
     90 H         198.1336  214.0577   85.9382 H        12      M_A    0.0000
     91 H         198.6459  212.6729   84.9842 H        12      M_A    0.0000
     92 C         196.5605  211.6990   85.4578 C.3      13      M_A    0.0000
     93 C         195.2257  211.1620   85.9656 C.3      13      M_A    0.0000
     94 O         194.1427  211.9123   85.4159 O.3      13      M_A    0.0000
     95 H         197.1059  210.8855   84.9658 H        13      M_A    0.0000
     96 H         196.4117  212.4928   84.7180 H        13      M_A    0.0000
     97 H         195.1320  210.0925   85.7287 H        13      M_A    0.0000
     98 H         195.1600  211.2426   87.0579 H        13      M_A    0.0000
     99 C         192.8953  211.3313   85.7374 C.3      14      M_A    0.0000
    100 C         191.8369  212.3834   86.0554 C.3      14      M_A    0.0000
    101 O         190.5454  211.9339   85.6456 O.3      14      M_A    0.0000
    102 H         193.0373  210.6939   86.6176 H        14      M_A    0.0000
    103 H         192.5770  210.6878   84.9103 H        14      M_A    0.0000
    104 H         191.8540  212.6269   87.1275 H        14      M_A    0.0000
    105 H         192.0426  213.3206   85.5233 H        14      M_A    0.0000
    106 C         189.5907  212.0961   86.6747 C.3      15      M_A    0.0000
    107 C         188.2546  212.6063   86.1432 C.3      15      M_A    0.0000
    108 O         187.1717  212.0174   86.8632 O.3      15      M_A    0.0000
    109 H         189.9883  212.8238   87.3915 H        15      M_A    0.0000
    110 H         189.4687  211.1442   87.2024 H        15      M_A    0.0000
    111 H         188.2196  213.7040   86.1955 H        15      M_A    0.0000
    112 H         188.1270  212.3441   85.0854 H        15      M_A    0.0000
    113 C         186.7728  212.8268   87.9507 C.3      16      M_A    0.0000
    114 C         185.2973  212.6421   88.2929 C.3      16      M_A    0.0000
    115 O         184.5755  213.8525   88.0655 O.3      16      M_A    0.0000
    116 H         186.9440  213.8730   87.6726 H        16      M_A    0.0000
    117 H         187.4095  212.6050   88.8137 H        16      M_A    0.0000
    118 H         184.8745  211.8094   87.7126 H        16      M_A    0.0000
    119 H         185.1697  212.3772   89.3499 H        16      M_A    0.0000
    120 C         183.1832  213.6199   88.0000 C.3      17      M_A    0.0000
    121 C         182.6069  213.9669   86.6305 C.3      17      M_A    0.0000
    122 O         182.1607  212.7873   85.9617 O.3      17      M_A    0.0000
    123 H         182.7006  214.2482   88.7573 H        17      M_A    0.0000
    124 H         182.9829  212.5750   88.2599 H        17      M_A    0.0000
    125 H         181.7933  214.6990   86.7355 H        17      M_A    0.0000
    126 H         183.3655  214.4387   85.9934 H        17      M_A    0.0000
    127 C         183.1109  211.7460   86.0603 C.3      18      M_A    0.0000
    128 C         182.7159  210.7051   87.1037 C.3      18      M_A    0.0000
    129 O         181.8994  209.6923   86.5160 O.3      18      M_A    0.0000
    130 H         184.0699  212.1912   86.3491 H        18      M_A    0.0000
    131 H         183.2422  211.2875   85.0744 H        18      M_A    0.0000
    132 H         183.6141  210.2745   87.5692 H        18      M_A    0.0000
    133 H         182.1375  211.1632   87.9157 H        18      M_A    0.0000
    134 C         180.6668  210.2176   86.0669 C.3      19      M_A    0.0000
    135 C         180.0916  209.4169   84.9024 C.3      19      M_A    0.0000
    136 O         178.9764  208.6370   85.3338 O.3      19      M_A    0.0000
    137 H         180.8398  211.2484   85.7372 H        19      M_A    0.0000
    138 H         179.9656  210.2521   86.9075 H        19      M_A    0.0000
    139 H         179.8138  210.0907   84.0791 H        19      M_A    0.0000
    140 H         180.8388  208.7245   84.4950 H        19      M_A    0.0000
    141 C         178.2110  208.1786   84.2379 C.3      20      M_A    0.0000
    142 C         178.2822  206.6624   84.0820 C.3      20      M_A    0.0000
    143 O         177.0085  206.1374   83.7080 O.3      20      M_A    0.0000
    144 H         178.6079  208.6474   83.3301 H        20      M_A    0.0000
    145 H         177.1759  208.5153   84.3591 H        20      M_A    0.0000
    146 H         179.0568  206.3921   83.3499 H        20      M_A    0.0000
    147 H         178.5704  206.1838   85.0263 H        20      M_A    0.0000
    148 C         176.7825  206.2689   82.3193 C.3      21      M_A    0.0000
    149 C         176.4326  204.9353   81.6657 C.3      21      M_A    0.0000
    150 O         175.3526  205.0966   80.7463 O.3      21      M_A    0.0000
    151 H         177.7007  206.6570   81.8637 H        21      M_A    0.0000
    152 H         175.9924  207.0092   82.1544 H        21      M_A    0.0000
    153 H         177.3184  204.5109   81.1715 H        21      M_A    0.0000
    154 H         176.1175  204.2005   82.4171 H        21      M_A    0.0000
    155 C         175.5774  206.1817   79.8695 C.3      22      M_A    0.0000
    156 C         174.6082  206.1780   78.6910 C.3      22      M_A    0.0000
    157 O         173.3974  206.8506   79.0367 O.3      22      M_A    0.0000
    158 H         176.6012  206.0992   79.4868 H        22      M_A    0.0000
    159 H         175.5094  207.1176   80.4343 H        22      M_A    0.0000
    160 H         175.0812  206.6339   77.8092 H        22      M_A    0.0000
    161 H         174.3439  205.1528   78.4034 H        22      M_A    0.0000
    162 C         172.2838  205.9843   78.9573 C.3      23      M_A    0.0000
    163 C         171.4096  206.2829   77.7429 C.3      23      M_A    0.0000
    164 O         170.9012  205.0725   77.1823 O.3      23      M_A    0.0000
    165 H         171.6863  206.1195   79.8661 H        23      M_A    0.0000
    166 H         172.6375  204.9479   78.9445 H        23      M_A    0.0000
    167 H         170.5955  206.9678   78.0205 H        23      M_A    0.0000
    168 H         171.9860  206.7910   76.9596 H        23      M_A    0.0000
    169 C         170.8118  204.0502   78.1538 C.3      24      M_A    0.0000
    170 C         169.7122  203.0437   77.8286 C.3      24      M_A    0.0000
    171 O         170.2749  201.8352   77.3179 O.3      24      M_A    0.0000
    172 H         170.5882  204.5204   79.1182 H        24      M_A    0.0000
    173 H         171.7854  203.5567   78.2439 H        24      M_A    0.0000
    174 H         169.0967  202.8530   78.7195 H        24      M_A    0.0000
    175 H         169.0323  203.4386   77.0633 H        24      M_A    0.0000
    176 C         169.3234  201.0911   76.5844 C.3      25      M_A    0.0000
    177 C         169.0065  201.7339   75.2374 C.3      25      M_A    0.0000
    178 O         168.7820  200.7323   74.2454 O.3      25      M_A    0.0000
    179 H         168.4038  201.0413   77.1787 H        25      M_A    0.0000
    180 H         169.6914  200.0675   76.4571 H        25      M_A    0.0000
    181 H         168.1404  202.4047   75.3315 H        25      M_A    0.0000
    182 H         169.8420  202.3560   74.8930 H        25      M_A    0.0000
    183 C         168.5544  199.4664   74.8307 C.3      26      M_A    0.0000
    184 C         167.0775  199.2307   75.1328 C.3      26      M_A    0.0000
    185 O         166.7192  197.8774   74.8531 O.3      26      M_A    0.0000
    186 H         169.1196  199.4223   75.7687 H        26      M_A    0.0000
    187 H         168.9512  198.6898   74.1682 H        26      M_A    0.0000
    188 H         166.8568  199.4951   76.1769 H        26      M_A    0.0000
    189 H         166.4422  199.8739   74.5112 H        26      M_A    0.0000
    190 C         166.8449  197.0615   76.0000 C.3      27      M_A    0.0000
    191 C         165.8095  197.4066   77.0663 C.3      27      M_A    0.0000
    192 O         164.5386  196.8514   76.7280 O.3      27      M_A    0.0000
    193 H         167.8471  197.2166   76.4157 H        27      M_A    0.0000
    194 H         166.7693  196.0106   75.7010 H        27      M_A    0.0000
    195 H         166.1488  197.0571   78.0520 H        27      M_A    0.0000
    196 H         165.6811  198.4928   77.1519 H        27      M_A    0.0000
    197 C         163.7318  197.7866   76.0414 C.3      28      M_A    0.0000
    198 C         162.5742  197.1166   75.3072 C.3      28      M_A    0.0000
    199 O         161.4419  197.9847   75.2601 O.3      28      M_A    0.0000
    200 H         164.3635  198.3039   75.3101 H        28      M_A    0.0000
    201 H         163.3681  198.5353   76.7531 H        28      M_A    0.0000
    202 H         162.8889  196.8147   74.2978 H        28      M_A    0.0000
    203 H         162.2629  196.1982   75.8204 H        28      M_A    0.0000
    204 C         161.3746  198.6808   74.0322 C.3      29      M_A    0.0000
    205 C         159.9684  198.6662   73.4403 C.3      29      M_A    0.0000
    206 O         159.6176  199.9608   72.9516 O.3      29      M_A    0.0000
    207 H         162.0600  198.1925   73.3300 H        29      M_A    0.0000
    208 H         161.7295  199.7060   74.1827 H        29      M_A    0.0000
    209 H         159.8980  197.9071   72.6480 H        29      M_A    0.0000
    210 H         159.2259  198.3892   74.1991 H        29      M_A    0.0000
    211 C         158.2306  200.2018   73.0748 C.3      30      M_A    0.0000
    212 C         157.6630  200.9242   71.8566 C.3      30      M_A    0.0000
    213 O         156.8405  200.0439   71.0909 O.3      30      M_A    0.0000
    214 H         158.0746  200.8262   73.9619 H        30      M_A    0.0000
    215 H         157.7163  199.2500   73.2451 H        30      M_A    0.0000
    216 H         157.1066  201.8189   72.1711 H        30      M_A    0.0000
    217 H         158.4674  201.2770   71.1992 H        30      M_A    0.0000
    218 C         156.6343  200.5360   69.7824 C.3      31      M_A    0.0000
    219 C         156.0643  199.4701   68.8512 C.3      31      M_A    0.0000
    220 O         154.6380  199.4651   68.9097 O.3      31      M_A    0.0000
    221 H         157.6026  200.8679   69.3907 H        31      M_A    0.0000
    222 H         155.9782  201.4117   69.8292 H        31      M_A    0.0000
    223 H         156.4218  199.6328   67.8242 H        31      M_A    0.0000
    224 H         156.4085  198.4698   69.1423 H        31      M_A    0.0000
    225 C         154.1038  198.2580   68.4054 C.3      32      M_A    0.0000
    226 C         154.4385  197.0655   69.2964 C.3      32      M_A    0.0000
    227 O         153.3973  196.0905   69.2397 O.3      32      M_A    0.0000
    228 H         154.5329  198.0891   67.4111 H        32      M_A    0.0000
    229 H         153.0211  198.3695   68.2843 H        32      M_A    0.0000
    230 H         155.4068  196.6339   69.0050 H        32      M_A    0.0000
    231 H         154.5419  197.3750   70.3440 H        32      M_A    0.0000
    232 C         152.8584  195.9845   67.9376 C.3      33      M_A    0.0000
    233 C         153.3939  194.7657   67.1921 C.3      33      M_A    0.0000
    234 O         152.4191  193.7230   67.1724 O.3      33      M_A    0.0000
    235 H         153.1353  196.8889   67.3837 H        33      M_A    0.0000
    236 H         151.7655  195.9586   68.0042 H        33      M_A    0.0000
    237 H         153.6987  195.0473   66.1740 H        33      M_A    0.0000
    238 H         154.2906  194.3678   67.6832 H        33      M_A    0.0000
    239 C         153.0220  192.4542   67.0191 C.3      34      M_A    0.0000
    240 C         152.2319  191.5535   66.0742 C.3      34      M_A    0.0000
    241 O         153.0956  190.6051   65.4479 O.3      34      M_A    0.0000
    242 H         153.0659  191.9804   68.0065 H        34      M_A    0.0000
    243 H         154.0513  192.5875   66.6696 H        34      M_A    0.0000
    244 H         151.4173  191.0543   66.6183 H        34      M_A    0.0000
    245 H         151.7565  192.1405   65.2784 H        34      M_A    0.0000
    246 C         153.3474  189.4993   66.2910 C.3      35      M_A    0.0000
    247 C         152.9320  188.1799   65.6468 C.3      35      M_A    0.0000
    248 O         154.0273  187.2644   65.6302 O.3      35      M_A    0.0000
    249 H         152.7718  189.6404   67.2129 H        35      M_A    0.0000
    250 H         154.4087  189.4903   66.5613 H        35      M_A    0.0000
    251 H         152.0650  187.7566   66.1741 H        35      M_A    0.0000
    252 H         152.6159  188.3329   64.6074 H        35      M_A    0.0000
    253 C         153.5927  185.9426   65.3833 C.3      36      M_A    0.0000
    254 C         152.7043  185.8520   64.1461 C.3      36      M_A    0.0000
    255 O         152.8288  184.5686   63.5335 O.3      36      M_A    0.0000
    256 H         153.0206  185.6074   66.2560 H        36      M_A    0.0000
    257 H         154.4676  185.2904   65.2903 H        36      M_A    0.0000
    258 H         151.6597  186.0683   64.4123 H        36      M_A    0.0000
    259 H         152.9935  186.6019   63.3993 H        36      M_A    0.0000
    260 C         152.0000  183.6125   64.1628 C.3      37      M_A    0.0000
    261 C         151.4828  182.5657   63.1805 C.3      37      M_A    0.0000
    262 O         151.2143  181.3363   63.8546 O.3      37      M_A    0.0000
    263 H         151.1453  184.1423   64.5988 H        37      M_A    0.0000
    264 H         152.5536  183.1447   64.9838 H        37      M_A    0.0000
    265 H         150.5888  182.9409   62.6618 H        37      M_A    0.0000
    266 H         152.2264  182.3574   62.4011 H        37      M_A    0.0000
    267 C         150.2985  180.5393   63.1315 C.3      38      M_A    0.0000
    268 C         148.9936  180.3291   63.8937 C.3      38      M_A    0.0000
    269 O         147.8770  180.4191   63.0089 O.3      38      M_A    0.0000
    270 H         150.7668  179.5643   62.9546 H        38      M_A    0.0000
    271 H         150.1161  181.0010   62.1552 H        38      M_A    0.0000
    272 H         149.0116  179.3626   64.4178 H        38      M_A    0.0000
    273 H         148.8626  181.0964   64.6670 H        38      M_A    0.0000
    274 C         148.0582  179.6112   61.8637 C.3      39      M_A    0.0000
    275 C         146.7298  179.1771   61.2512 C.3      39      M_A    0.0000
    276 O         146.5199  179.8280   59.9982 O.3      39      M_A    0.0000
    277 H         148.6177  178.7186   62.1661 H        39      M_A    0.0000
    278 H         148.6701  180.1549   61.1360 H        39      M_A    0.0000
    279 H         146.7011  178.0833   61.1433 H        39      M_A    0.0000
    280 H         145.8902  179.4443   61.9050 H        39      M_A    0.0000
    281 C         145.7262  179.0414   59.1333 C.3      40      M_A    0.0000
    282 C         144.4853  178.4938   59.8320 C.3      40      M_A    0.0000
    283 O         143.3171  179.1873   59.3937 O.3      40      M_A    0.0000
    284 H         146.3378  178.2007   58.7862 H        40      M_A    0.0000
    285 H         145.4549  179.6381   58.2558 H        40      M_A    0.0000
    286 H         144.3974  177.4119   59.6567 H        40      M_A    0.0000
    287 H         144.5567  178.6250   60.9189 H        40      M_A    0.0000
    288 C         142.2502  179.0323   60.3073 C.3      41      M_A    0.0000
    289 C         141.1978  180.1262   60.1520 C.3      41      M_A    0.0000
    290 O         140.3079  179.8160   59.0798 O.3      41      M_A    0.0000
    291 H         142.6647  179.0804   61.3207 H        41      M_A    0.0000
    292 H         141.8094  178.0383   60.1765 H        41      M_A    0.0000
    293 H         140.6526  180.2651   61.0967 H        41      M_A    0.0000
    294 H         141.6659  181.0914   59.9217 H        41      M_A    0.0000
    295 C         140.9486  179.9329   57.8257 C.3      42      M_A    0.0000
    296 C         139.9773  180.3360   56.7201 C.3      42      M_A    0.0000
    297 O         140.6571  181.0643   55.6978 O.3      42      M_A    0.0000
    298 H         141.3837  178.9581   57.5774 H        42      M_A    0.0000
    299 H         141.7713  180.6509   57.9102 H        42      M_A    0.0000
    300 H         139.4767  179.4462   56.3118 H        42      M_A    0.0000
    301 H         139.1831  180.9836   57.1122 H        42      M_A    0.0000
    302 C         139.9377  181.0424   54.4816 C.3      43      M_A    0.0000
    303 C         139.3264  182.4009   54.1515 C.3      43      M_A    0.0000
    304 O         139.3320  182.6228   52.7414 O.3      43      M_A    0.0000
    305 H         139.1322  180.3056   54.5798 H        43      M_A    0.0000
    306 H         140.6017  180.7023   53.6798 H        43      M_A    0.0000
    307 H         138.3092  182.4694   54.5631 H        43      M_A    0.0000
    308 H         139.9013  183.2129   54.6142 H        43      M_A    0.0000
    309 C         139.2823  184.0014   52.4346 C.3      44      M_A    0.0000
    310 C         137.9932  184.3827   51.7127 C.3      44      M_A    0.0000
    311 O         137.4288  185.5620   52.2859 O.3      44      M_A    0.0000
    312 H         140.1342  184.2330   51.7851 H        44      M_A    0.0000
    313 H         139.4035  184.5776   53.3580 H        44      M_A    0.0000
    314 H         138.1844  184.5126   50.6378 H        44      M_A    0.0000
    315 H         137.2447  183.5852   51.7983 H        44      M_A    0.0000
    316 C         136.0167  185.5346   52.2397 C.3      45      M_A    0.0000
    317 C         135.4215  186.9258   52.0433 C.3      45      M_A    0.0000
    318 O         135.1243  187.1531   50.6657 O.3      45      M_A    0.0000
    319 H         135.6563  185.1259   53.1907 H        45      M_A    0.0000
    320 H         135.6983  184.8526   51.4441 H        45      M_A    0.0000
    321 H         134.5270  187.0479   52.6709 H        45      M_A    0.0000
    322 H         136.1282  187.7033   52.3595 H        45      M_A    0.0000
    323 C         136.3027  187.2961   49.8991 C.3      46      M_A    0.0000
    324 C         136.1011  188.2227   48.7038 C.3      46      M_A    0.0000
    325 O         136.4843  189.5574   49.0350 O.3      46      M_A    0.0000
    326 H         136.5896  186.3034   49.5337 H        46      M_A    0.0000
    327 H         137.1090  187.6563   50.5469 H        46      M_A    0.0000
    328 H         136.6625  187.8494   47.8352 H        46      M_A    0.0000
    329 H         135.0469  188.2492   48.4010 H        46      M_A    0.0000
    330 C         136.4965  190.3903   47.8935 C.3      47      M_A    0.0000
    331 C         135.1348  190.4441   47.2074 C.3      47      M_A    0.0000
    332 O         134.9197  191.7282   46.6219 O.3      47      M_A    0.0000
    333 H         137.2327  189.9861   47.1892 H        47      M_A    0.0000
    334 H         136.8321  191.3913   48.1850 H        47      M_A    0.0000
    335 H         135.0559  189.6443   46.4571 H        47      M_A    0.0000
    336 H         134.3252  190.2718   47.9276 H        47      M_A    0.0000
    337 C         135.9991  192.1053   45.7915 C.3      48      M_A    0.0000
    338 C         136.4089  190.9862   44.8389 C.3      48      M_A    0.0000
    339 O         136.3238  191.4263   43.4835 O.3      48      M_A    0.0000
    340 H         136.8504  192.3515   46.4365 H        48      M_A    0.0000
    341 H         135.7269  193.0126   45.2417 H        48      M_A    0.0000
    342 H         137.4215  190.6329   45.0817 H        48      M_A    0.0000
    343 H         135.7462  190.1182   44.9446 H        48      M_A    0.0000
    344 C         134.9806  191.5939   43.0776 C.3      49      M_A    0.0000
    345 C         134.8733  192.0856   41.6372 C.3      49      M_A    0.0000
    346 O         135.0714  191.0065   40.7238 O.3      49      M_A    0.0000
    347 H         134.5181  192.3342   43.7404 H        49      M_A    0.0000
    348 H         134.4457  190.6479   43.2132 H        49      M_A    0.0000
    349 H         133.9018  192.5741   41.4743 H        49      M_A    0.0000
    350 H         135.6383  192.8422   41.4226 H        49      M_A    0.0000
    351 C         136.0972  191.2960   39.7960 C.3      50      M_A    0.0000
    352 C         136.3700  190.1242   38.8576 C.3      50      M_A    0.0000
    353 O         136.0477  190.4751   37.5119 O.3      50      M_A    0.0000
    354 H         137.0098  191.5177   40.3609 H        50      M_A    0.0000
    355 H         135.8277  192.1972   39.2350 H        50      M_A    0.0000
    356 H         137.4176  189.8024   38.9469 H        50      M_A    0.0000
    357 H         135.7567  189.2551   39.1263 H        50      M_A    0.0000
    358 C         135.6304  191.8217   37.4143 C.3      51      M_A    0.0000
    359 C         136.2206  192.5185   36.1920 C.3      51      M_A    0.0000
    360 O         135.4189  193.6392   35.8190 O.3      51      M_A    0.0000
    361 H         135.9661  192.3448   38.3171 H        51      M_A    0.0000
    362 H         134.5358  191.8564   37.3991 H        51      M_A    0.0000
    363 H         137.2595  192.8186   36.3909 H        51      M_A    0.0000
    364 H         136.2557  191.8388   35.3314 H        51      M_A    0.0000
    365 C         135.8394  194.1888   34.5869 C.3      52      M_A    0.0000
    366 C         136.1613  195.6758   34.7015 C.3      52      M_A    0.0000
    367 O         137.5162  195.9249   34.3270 O.3      52      M_A    0.0000
    368 H         135.0261  194.0568   33.8640 H        52      M_A    0.0000
    369 H         136.7033  193.6244   34.2202 H        52      M_A    0.0000
    370 H         135.4626  196.2637   34.0891 H        52      M_A    0.0000
    371 H         136.0361  196.0262   35.7337 H        52      M_A    0.0000
    372 C         137.6587  196.0030   32.9233 C.3      53      M_A    0.0000
    373 C         136.9670  197.2332   32.3435 C.3      53      M_A    0.0000
    374 O         137.8843  198.3224   32.2430 O.3      53      M_A    0.0000
    375 H         137.2070  195.1042   32.4882 H        53      M_A    0.0000
    376 H         138.7245  195.9932   32.6712 H        53      M_A    0.0000
    377 H         136.5222  196.9936   31.3670 H        53      M_A    0.0000
    378 H         136.1401  197.5585   32.9872 H        53      M_A    0.0000
    379 C         137.3904  199.3379   31.3934 C.3      54      M_A    0.0000
    380 C         137.2848  200.6824   32.1069 C.3      54      M_A    0.0000
    381 O         137.5492  201.7525   31.1998 O.3      54      M_A    0.0000
    382 H         136.3926  199.0374   31.0538 H        54      M_A    0.0000
    383 H         138.0336  199.4087   30.5098 H        54      M_A    0.0000
    384 H         136.2943  200.7883   32.5724 H        54      M_A    0.0000
    385 H         138.0169  200.7534   32.9210 H        54      M_A    0.0000
    386 C         138.1037  202.8693   31.8649 C.3      55      M_A    0.0000
    387 C         137.9953  204.1444   31.0340 C.3      55      M_A    0.0000
    388 O         137.3368  205.1709   31.7761 O.3      55      M_A    0.0000
    389 H         139.1625  202.6578   32.0532 H        55      M_A    0.0000
    390 H         137.6116  202.9873   32.8362 H        55      M_A    0.0000
    391 H         138.9927  204.4676   30.7029 H        55      M_A    0.0000
    392 H         137.4095  203.9706   30.1227 H        55      M_A    0.0000
    393 C         136.4863  205.9410   30.9512 C.3      56      M_A    0.0000
    394 C         137.0930  207.2987   30.6097 C.3      56      M_A    0.0000
    395 O         137.1421  207.4834   29.1951 O.3      56      M_A    0.0000
    396 H         135.5456  206.0986   31.4910 H        56      M_A    0.0000
    397 H         136.2564  205.3714   30.0444 H        56      M_A    0.0000
    398 H         136.5237  208.1025   31.0985 H        56      M_A    0.0000
    399 H         138.1204  207.3757   30.9869 H        56      M_A    0.0000
    400 C         137.3512  208.8396   28.8575 C.3      57      M_A    0.0000
    401 C         138.1549  208.9934   27.5697 C.3      57      M_A    0.0000
    402 O         137.3715  208.6047   26.4414 O.3      57      M_A    0.0000
    403 H         137.9041  209.3099   29.6788 H        57      M_A    0.0000
    404 H         136.3813  209.3424   28.7806 H        57      M_A    0.0000
    405 H         138.5160  210.0270   27.4688 H        57      M_A    0.0000
    406 H         139.0474  208.3554   27.5854 H        57      M_A    0.0000
    407 C         138.1501  208.5558   25.2632 C.3      58      M_A    0.0000
    408 C         137.4346  207.8231   24.1321 C.3      58      M_A    0.0000
    409 O         137.6513  208.4893   22.8883 O.3      58      M_A    0.0000
    410 H         139.0808  208.0258   25.4961 H        58      M_A    0.0000
    411 H         138.4153  209.5764   24.9676 H        58      M_A    0.0000
    412 H         137.7671  206.7760   24.0881 H        58      M_A    0.0000
    413 H         136.3516  207.7954   24.3056 H        58      M_A    0.0000
    414 C         138.7955  207.9897   22.2265 C.3      59      M_A    0.0000
    415 C         138.6243  207.9823   20.7103 C.3      59      M_A    0.0000
    416 O         139.7141  208.6555   20.0803 O.3      59      M_A    0.0000
    417 H         138.9614  206.9621   22.5695 H        59      M_A    0.0000
    418 H         139.6673  208.5827   22.5230 H        59      M_A    0.0000
    419 H         138.5266  206.9501   20.3444 H        59      M_A    0.0000
    420 H         137.7035  208.5017   20.4167 H        59      M_A    0.0000
    421 C         139.3441  209.1689   18.8168 C.3      60      M_A    0.0000
    422 C         140.0366  208.4336   17.6731 C.3      60      M_A    0.0000
    423 O         139.0970  208.0989   16.6518 O.3      60      M_A    0.0000
    424 H         139.6325  210.2258   18.7849 H        60      M_A    0.0000
    425 H         138.2546  209.1197   18.7162 H        60      M_A    0.0000
    426 H         140.8607  209.0425   17.2743 H        60      M_A    0.0000
    427 H         140.4874  207.4971   18.0244 H        60      M_A    0.0000
    428 C         138.3373  209.2238   16.2591 C.3      61      M_A    0.0000
    429 C         137.5772  208.9778   14.9591 C.3      61      M_A    0.0000
    430 O         136.2165  209.3895   15.0893 O.3      61      M_A    0.0000
    431 H         139.0276  210.0624   16.1128 H        61      M_A    0.0000
    432 H         137.6542  209.4949   17.0711 H        61      M_A    0.0000
    433 H         138.0735  209.4953   14.1255 H        61      M_A    0.0000
    434 H         137.5745  207.9113   14.7017 H        61      M_A    0.0000
    435 C         135.3589  208.6018   14.2887 C.3      62      M_A    0.0000
    436 C         134.3281  209.4478   13.5473 C.3      62      M_A    0.0000
    437 O         133.8960  208.7832   12.3600 O.3      62      M_A    0.0000
    438 H         134.8342  207.8997   14.9468 H        62      M_A    0.0000
    439 H         135.9631  208.0128   13.5904 H        62      M_A    0.0000
    440 H         133.4799  209.6778   14.2080 H        62      M_A    0.0000
    441 H         134.7550  210.4127   13.2468 H        62      M_A    0.0000
    442 C         132.5328  209.0399   12.0906 C.3      63      M_A    0.0000
    443 C         132.1863  210.5183   12.2407 C.3      63      M_A    0.0000
    444 O         130.9961  210.8295   11.5165 O.3      63      M_A    0.0000
    445 H         131.9337  208.4613   12.8029 H        63      M_A    0.0000
    446 H         132.2929  208.6779   11.0851 H        63      M_A    0.0000
    447 H         132.0868  210.7787   13.3043 H        63      M_A    0.0000
    448 H         132.9885  211.1519   11.8422 H        63      M_A    0.0000
    449 C         130.0756  209.7578   11.5493 C.3      64      M_A    0.0000
    450 C         128.9092  210.0316   12.4941 C.3      64      M_A    0.0000
    451 O         127.7011  210.2180   11.7569 O.3      64      M_A    0.0000
    452 H         130.6097  208.8653   11.8947 H        64      M_A    0.0000
    453 H         129.7220  209.5592   10.5319 H        64      M_A    0.0000
    454 H         128.8110  209.2139   13.2226 H        64      M_A    0.0000
    455 H         129.0824  210.9446   13.0774 H        64      M_A    0.0000
    456 C         126.6485  210.6568   12.5914 C.3      65      M_A    0.0000
    457 C         125.2987  210.6192   11.8808 C.3      65      M_A    0.0000
    458 O         124.2660  210.2346   12.7882 O.3      65      M_A    0.0000
    459 H         126.8633  211.6892   12.8901 H        65      M_A    0.0000
    460 H         126.6341  210.0453   13.4999 H        65      M_A    0.0000
    461 H         125.0844  211.5949   11.4214 H        65      M_A    0.0000
    462 H         125.3060  209.8884   11.0626 H        65      M_A    0.0000
    463 C         123.1761  211.1329   12.7422 C.3      66      M_A    0.0000
    464 C         121.8335  210.4093   12.7862 C.3      66      M_A    0.0000
    465 O         120.9404  211.0658   13.6859 O.3      66      M_A    0.0000
    466 H         123.2440  211.6974   11.8052 H        66      M_A    0.0000
    467 H         123.2671  211.8477   13.5669 H        66      M_A    0.0000
    468 H         121.4053  210.3420   11.7758 H        66      M_A    0.0000
    469 H         121.9550  209.3774   13.1387 H        66      M_A    0.0000
    470 C         119.6575  211.2265   13.1156 C.3      67      M_A    0.0000
    471 C         118.7095  211.9853   14.0396 C.3      67      M_A    0.0000
    472 O         118.4337  213.2845   13.5162 O.3      67      M_A    0.0000
    473 H         119.2452  210.2288   12.9266 H        67      M_A    0.0000
    474 H         119.7568  211.7324   12.1493 H        67      M_A    0.0000
    475 H         117.7845  211.4100   14.1897 H        67      M_A    0.0000
    476 H         119.1538  212.1192   15.0338 H        67      M_A    0.0000
    477 C         117.7091  214.0711   14.4399 C.3      68      M_A    0.0000
    478 C         117.8109  215.5614   14.1290 C.3      68      M_A    0.0000
    479 O         116.5929  216.2268   14.4632 O.3      68      M_A    0.0000
    480 H         118.1245  213.8877   15.4374 H        68      M_A    0.0000
    481 H         116.6652  213.7398   14.4498 H        68      M_A    0.0000
    482 H         118.6664  216.0024   14.6607 H        68      M_A    0.0000
    483 H         117.9936  215.7279   13.0600 H        68      M_A    0.0000
    484 C         116.5258  216.5200   15.8439 C.3      69      M_A    0.0000
    485 C         115.8637  217.8681   16.1130 C.3      69      M_A    0.0000
    486 O         114.6346  217.6903   16.8172 O.3      69      M_A    0.0000
    487 H         117.5500  216.5440   16.2335 H        69      M_A    0.0000
    488 H         115.9956  215.7099   16.3559 H        69      M_A    0.0000
    489 H         116.5504  218.5244   16.6667 H        69      M_A    0.0000
    490 H         115.6323  218.3862   15.1740 H        69      M_A    0.0000
    491 C         113.6457  217.1082   15.9926 C.3      70      M_A    0.0000
    492 C         112.2456  217.2620   16.5793 C.3      70      M_A    0.0000
    493 O         111.7437  218.5766   16.3387 O.3      70      M_A    0.0000
    494 H         113.8739  216.0406   15.8950 H        70      M_A    0.0000
    495 H         113.7066  217.5526   14.9934 H        70      M_A    0.0000
    496 H         111.5744  216.4957   16.1654 H        70      M_A    0.0000
    497 H         112.2560  217.1081   17.6656 H        70      M_A    0.0000
    498 C         111.2101  218.6960   15.0357 C.3      71      M_A    0.0000
    499 C         109.8639  219.4142   15.0301 C.3      71      M_A    0.0000
    500 O         110.0476  220.8228   15.1719 O.3      71      M_A    0.0000
    501 H         111.0745  217.6855   14.6331 H        71      M_A    0.0000
    502 H         111.9360  219.2118   14.3981 H        71      M_A    0.0000
    503 H         109.3092  219.1737   14.1117 H        71      M_A    0.0000
    504 H         109.2366  219.0790   15.8656 H        71      M_A    0.0000
    505 C         111.0418  221.1208   16.1308 C.3      72      M_A    0.0000
    506 C         110.4718  221.8587   17.3385 C.3      72      M_A    0.0000
    507 O         110.9357  221.2664   18.5517 O.3      72      M_A    0.0000
    508 H         111.7942  221.7562   15.6498 H        72      M_A    0.0000
    509 H         111.5370  220.1918   16.4328 H        72      M_A    0.0000
    510 H         110.7326  222.9257   17.2892 H        72      M_A    0.0000
    511 H         109.3757  221.8097   17.3472 H        72      M_A    0.0000
    512 C         109.9707  221.3682   19.5790 C.3      73      M_A    0.0000
    513 C         108.7869  220.4334   19.3494 C.3      73      M_A    0.0000
    514 O         107.8471  220.5441   20.4183 O.3      73      M_A    0.0000
    515 H         109.6075  222.4021   19.5989 H        73      M_A    0.0000
    516 H         110.4518  221.1677   20.5423 H        73      M_A    0.0000
    517 H         108.3162  220.6483   18.3793 H        73      M_A    0.0000
    518 H         109.1151  219.3873   19.3076 H        73      M_A    0.0000
    519 C         107.6903  221.8861   20.8322 C.3      74      M_A    0.0000
    520 C         107.5537  222.8396   19.6489 C.3      74      M_A    0.0000
    521 O         107.2420  224.1572   20.1013 O.3      74      M_A    0.0000
    522 H         108.5772  222.1657   21.4123 H        74      M_A    0.0000
    523 H         106.8236  221.9557   21.4981 H        74      M_A    0.0000
    524 H         108.4733  222.8309   19.0463 H        74      M_A    0.0000
    525 H         106.7441  222.5219   18.9801 H        74      M_A    0.0000
    526 C         107.5153  225.1236   19.1071 C.3      75      M_A    0.0000
    527 C         107.1047  224.6486   17.7165 C.3      75      M_A    0.0000
    528 O         108.1548  224.8812   16.7778 O.3      75      M_A    0.0000
    529 H         108.5943  225.3161   19.1118 H        75      M_A    0.0000
    530 H         107.0108  226.0594   19.3701 H        75      M_A    0.0000
    531 H         106.8230  223.5862   17.7461 H        75      M_A    0.0000
    532 H         106.2203  225.1921   17.3612 H        75      M_A    0.0000
    533 C         108.0688  224.0000   15.6765 C.3      76      M_A    0.0000
    534 C         106.6240  223.7423   15.2589 C.3      76      M_A    0.0000
    535 O         106.4594  223.9700   13.8593 O.3      76      M_A    0.0000
    536 H         108.5282  223.0489   15.9693 H        76      M_A    0.0000
    537 H         108.6536  224.4084   14.8455 H        76      M_A    0.0000
    538 H         106.3253  222.7210   15.5358 H        76      M_A    0.0000
    539 H         105.9371  224.4174   15.7846 H        76      M_A    0.0000
    540 C         105.4692  223.1242   13.3107 C.3      77      M_A    0.0000
    541 C         105.7739  222.7466   11.8641 C.3      77      M_A    0.0000
    542 O         105.4410  221.3795   11.6229 O.3      77      M_A    0.0000
    543 H         104.5131  223.6592   13.3436 H        77      M_A    0.0000
    544 H         105.3718  222.2330   13.9398 H        77      M_A    0.0000
    545 H         105.2378  223.4161   11.1761 H        77      M_A    0.0000
    546 H         106.8417  222.8685   11.6431 H        77      M_A    0.0000
    547 C         106.0040  220.9158   10.4126 C.3      78      M_A    0.0000
    548 C         105.0948  219.9178    9.7016 C.3      78      M_A    0.0000
    549 O         104.4820  220.5223    8.5628 O.3      78      M_A    0.0000
    550 H         106.9540  220.4233   10.6498 H        78      M_A    0.0000
    551 H         106.2273  221.7743    9.7703 H        78      M_A    0.0000
    552 H         105.6636  219.0199    9.4202 H        78      M_A    0.0000
    553 H         104.2904  219.5774   10.3656 H        78      M_A    0.0000
    554 C         105.4365  221.1625    7.7407 C.3      79      M_A    0.0000
    555 C         104.9457  221.3170    6.3042 C.3      79      M_A    0.0000
    556 O         104.2006  222.5258    6.1572 O.3      79      M_A    0.0000
    557 H         106.3459  220.5506    7.7407 H        79      M_A    0.0000
    558 H         105.6909  222.1338    8.1781 H        79      M_A    0.0000
    559 H         105.7953  221.2836    5.6072 H        79      M_A    0.0000
    560 H         104.2845  220.4874    6.0239 H        79      M_A    0.0000
    561 C         102.8680  222.2675    5.7646 C.3      80      M_A    0.0000
    562 C         101.9348  223.4260    6.1036 C.3      80      M_A    0.0000
    563 O         101.9352  224.3928    5.0533 O.3      80      M_A    0.0000
    564 H         102.5279  221.3711    6.2959 H        80      M_A    0.0000
    565 H         102.8481  222.0445    4.6925 H        80      M_A    0.0000
    566 H         100.9203  223.0509    6.3014 H        80      M_A    0.0000
    567 H         102.2586  223.9359    7.0195 H        80      M_A    0.0000
    568 C         101.8137  225.7065    5.5595 C.3      81      M_A    0.0000
    569 C         100.8087  226.5367    4.7665 C.3      81      M_A    0.0000
    570 O          99.9999  227.3178    5.6461 O.3      81      M_A    0.0000
    571 H         102.7977  226.1848    5.4952 H        81      M_A    0.0000
    572 H         101.5378  225.6574    6.6183 H        81      M_A    0.0000
    573 H         101.3322  227.1704    4.0362 H        81      M_A    0.0000
    574 H         100.1359  225.8913    4.1880 H        81      M_A    0.0000
    575 C         100.7609  227.8535    6.7095 C.3      82      M_A    0.0000
    576 C         100.3333  229.2750    7.0623 C.3      82      M_A    0.0000
    577 O          99.4111  229.2644    8.1520 O.3      82      M_A    0.0000
    578 H         101.8119  227.8661    6.3988 H        82      M_A    0.0000
    579 H         100.6798  227.1895    7.5768 H        82      M_A    0.0000
    580 H         101.2151  229.8909    7.2907 H        82      M_A    0.0000
    581 H          99.8328  229.7566    6.2130 H        82      M_A    0.0000
    582 C          98.8615  230.5466    8.3769 C.3      83      M_A    0.0000
    583 C          97.9127  230.9688    7.2590 C.3      83      M_A    0.0000
    584 O          97.0177  231.9817    7.7180 O.3      83      M_A    0.0000
    585 H          99.6889  231.2635    8.4292 H        83      M_A    0.0000
    586 H          98.3556  230.5533    9.3483 H        83      M_A    0.0000
    587 H          98.4848  231.3076    6.3833 H        83      M_A    0.0000
    588 H          97.3037  230.1214    6.9200 H        83      M_A    0.0000
    589 C          97.7156  233.1348    8.1426 C.3      84      M_A    0.0000
    590 C          96.8988  233.9721    9.1223 C.3      84      M_A    0.0000
    591 O          97.7601  234.7050    9.9935 O.3      84      M_A    0.0000
    592 H          97.9359  233.7408    7.2563 H        84      M_A    0.0000
    593 H          98.6716  232.8320    8.5828 H        84      M_A    0.0000
    594 H          96.2197  234.6416    8.5751 H        84      M_A    0.0000
    595 H          96.2633  233.3340    9.7492 H        84      M_A    0.0000
    596 C          97.0371  235.3123   11.0449 C.3      85      M_A    0.0000
    597 C          97.7621  236.5292   11.6121 C.3      85      M_A    0.0000
    598 O          96.8358  237.5796   11.8889 O.3      85      M_A    0.0000
    599 H          96.9136  234.5699   11.8416 H        85      M_A    0.0000
    600 H          96.0384  235.5800   10.6838 H        85      M_A    0.0000
    601 H          98.3285  236.2482   12.5117 H        85      M_A    0.0000
    602 H          98.4957  236.9186   10.8952 H        85      M_A    0.0000
    603 C          96.1903  237.3860   13.1309 C.3      86      M_A    0.0000
    604 C          94.8687  236.6383   12.9807 C.3      86      M_A    0.0000
    605 O          94.9375  235.3660   13.6245 O.3      86      M_A    0.0000
    606 H          95.9921  238.3726   13.5651 H        86      M_A    0.0000
    607 H          96.8693  236.8565   13.8078 H        86      M_A    0.0000
    608 H          94.0425  237.2441   13.3797 H        86      M_A    0.0000
    609 H          94.6369  236.4593   11.9233 H        86      M_A    0.0000
    610 C          96.2752  234.9809   13.8674 C.3      87      M_A    0.0000
    611 C          96.4191  233.4695   14.0190 C.3      87      M_A    0.0000
    612 O          97.3815  232.9631   13.0942 O.3      87      M_A    0.0000
    613 H          96.6013  235.4630   14.7962 H        87      M_A    0.0000
    614 H          96.9086  235.3591   13.0579 H        87      M_A    0.0000
    615 H          96.6877  233.2157   15.0546 H        87      M_A    0.0000
    616 H          95.4681  232.9621   13.8142 H        87      M_A    0.0000
    617 H          98.2740  232.9142   13.4960 H        87      M_A    0.0000
    618 H         195.2109  192.9910   90.6400 H         0      M_A    0.0000
@<TRIPOS>BOND
     1     1     2      1
     2     1     4      1
     3     1     5      1
     4     1   618      1
     5     2     3      1
     6     2     6      1
     7     2     7      1
     8     3     8      1
     9     8     9      1
    10     8    11      1
    11     8    12      1
    12     9    10      1
    13     9    13      1
    14     9    14      1
    15    10    15      1
    16    15    16      1
    17    15    18      1
    18    15    19      1
    19    16    17      1
    20    16    20      1
    21    16    21      1
    22    17    22      1
    23    22    23      1
    24    22    25      1
    25    22    26      1
    26    23    24      1
    27    23    27      1
    28    23    28      1
    29    24    29      1
    30    29    30      1
    31    29    32      1
    32    29    33      1
    33    30    31      1
    34    30    34      1
    35    30    35      1
    36    31    36      1
    37    36    37      1
    38    36    39      1
    39    36    40      1
    40    37    38      1
    41    37    41      1
    42    37    42      1
    43    38    43      1
    44    43    44      1
    45    43    46      1
    46    43    47      1
    47    44    45      1
    48    44    48      1
    49    44    49      1
    50    45    50      1
    51    50    51      1
    52    50    53      1
    53    50    54      1
    54    51    52      1
    55    51    55      1
    56    51    56      1
    57    52    57      1
    58    57    58      1
    59    57    60      1
    60    57    61      1
    61    58    59      1
    62    58    62      1
    63    58    63      1
    64    59    64      1
    65    64    65      1
    66    64    67      1
    67    64    68      1
    68    65    66      1
    69    65    69      1
    70    65    70      1
    71    66    71      1
    72    71    72      1
    73    71    74      1
    74    71    75      1
    75    72    73      1
    76    72    76      1
    77    72    77      1
    78    73    78      1
    79    78    79      1
    80    78    81      1
    81    78    82      1
    82    79    80      1
    83    79    83      1
    84    79    84      1
    85    80    85      1
    86    85    86      1
    87    85    88      1
    88    85    89      1
    89    86    87      1
    90    86    90      1
    91    86    91      1
    92    87    92      1
    93    92    93      1
    94    92    95      1
    95    92    96      1
    96    93    94      1
    97    93    97      1
    98    93    98      1
    99    94    99      1
   100    99   100      1
   101    99   102      1
   102    99   103      1
   103   100   101      1
   104   100   104      1
   105   100   105      1
   106   101   106      1
   107   106   107      1
   108   106   109      1
   109   106   110      1
   110   107   108      1
   111   107   111      1
   112   107   112      1
   113   108   113      1
   114   113   114      1
   115   113   116      1
   116   113   117      1
   117   114   115      1
   118   114   118      1
   119   114   119      1
   120   115   120      1
   121   120   121      1
   122   120   123      1
   123   120   124      1
   124   121   122      1
   125   121   125      1
   126   121   126      1
   127   122   127      1
   128   127   128      1
   129   127   130      1
   130   127   131      1
   131   128   129      1
   132   128   132      1
   133   128   133      1
   134   129   134      1
   135   134   135      1
   136   134   137      1
   137   134   138      1
   138   135   136      1
   139   135   139      1
   140   135   140      1
   141   136   141      1
   142   141   142      1
   143   141   144      1
   144   141   145      1
   145   142   143      1
   146   142   146      1
   147   142   147      1
   148   143   148      1
   149   148   149      1
   150   148   151      1
   151   148   152      1
   152   149   150      1
   153   149   153      1
   154   149   154      1
   155   150   155      1
   156   155   156      1
   157   155   158      1
   158   155   159      1
   159   156   157      1
   160   156   160      1
   161   156   161      1
   162   157   162      1
   163   162   163      1
   164   162   165      1
   165   162   166      1
   166   163   164      1
   167   163   167      1
   168   163   168      1
   169   164   169      1
   170   169   170      1
   171   169   172      1
   172   169   173      1
   173   170   171      1
   174   170   174      1
   175   170   175      1
   176   171   176      1
   177   176   177      1
   178   176   179      1
   179   176   180      1
   180   177   178      1
   181   177   181      1
   182   177   182      1
   183   178   183      1
   184   183   184      1
   185   183   186      1
   186   183   187      1
   187   184   185      1
   188   184   188      1
   189   184   189      1
   190   185   190      1
   191   190   191      1
   192   190   193      1
   193   190   194      1
   194   191   192      1
   195   191   195      1
   196   191   196      1
   197   192   197      1
   198   197   198      1
   199   197   200      1
   200   197   201      1
   201   198   199      1
   202   198   202      1
   203   198   203      1
   204   199   204      1
   205   204   205      1
   206   204   207      1
   207   204   208      1
   208   205   206      1
   209   205   209      1
   210   205   210      1
   211   206   211      1
   212   211   212      1
   213   211   214      1
   214   211   215      1
   215   212   213      1
   216   212   216      1
   217   212   217      1
   218   213   218      1
   219   218   219      1
   220   218   221      1
   221   218   222      1
   222   219   220      1
   223   219   223      1
   224   219   224      1
   225   220   225      1
   226   225   226      1
   227   225   228      1
   228   225   229      1
   229   226   227      1
   230   226   230      1
   231   226   231      1
   232   227   232      1
   233   232   233      1
   234   232   235      1
   235   232   236      1
   236   233   234      1
   237   233   237      1
   238   233   238      1
   239   234   239      1
   240   239   240      1
   241   239   242      1
   242   239   243      1
   243   240   241      1
   244   240   244      1
   245   240   245      1
   246   241   246      1
   247   246   247      1
   248   246   249      1
   249   246   250      1
   250   247   248      1
   251   247   251      1
   252   247   252      1
   253   248   253      1
   254   253   254      1
   255   253   256      1
   256   253   257      1
   257   254   255      1
   258   254   258      1
   259   254   259      1
   260   255   260      1
   261   260   261      1
   262   260   263      1
   263   260   264      1
   264   261   262      1
   265   261   265      1
   266   261   266      1
   267   262   267      1
   268   267   268      1
   269   267   270      1
   270   267   271      1
   271   268   269      1
   272   268   272      1
   273   268   273      1
   274   269   274      1
   275   274   275      1
   276   274   277      1
   277   274   278      1
   278   275   276      1
   279   275   279      1
   280   275   280      1
   281   276   281      1
   282   281   282      1
   283   281   284      1
   284   281   285      1
   285   282   283      1
   286   282   286      1
   287   282   287      1
   288   283   288      1
   289   288   289      1
   290   288   291      1
   291   288   292      1
   292   289   290      1
   293   289   293      1
   294   289   294      1
   295   290   295      1
   296   295   296      1
   297   295   298      1
   298   295   299      1
   299   296   297      1
   300   296   300      1
   301   296   301      1
   302   297   302      1
   303   302   303      1
   304   302   305      1
   305   302   306      1
   306   303   304      1
   307   303   307      1
   308   303   308      1
   309   304   309      1
   310   309   310      1
   311   309   312      1
   312   309   313      1
   313   310   311      1
   314   310   314      1
   315   310   315      1
   316   311   316      1
   317   316   317      1
   318   316   319      1
   319   316   320      1
   320   317   318      1
   321   317   321      1
   322   317   322      1
   323   318   323      1
   324   323   324      1
   325   323   326      1
   326   323   327      1
   327   324   325      1
   328   324   328      1
   329   324   329      1
   330   325   330      1
   331   330   331      1
   332   330   333      1
   333   330   334      1
   334   331   332      1
   335   331   335      1
   336   331   336      1
   337   332   337      1
   338   337   338      1
   339   337   340      1
   340   337   341      1
   341   338   339      1
   342   338   342      1
   343   338   343      1
   344   339   344      1
   345   344   345      1
   346   344   347      1
   347   344   348      1
   348   345   346      1
   349   345   349      1
   350   345   350      1
   351   346   351      1
   352   351   352      1
   353   351   354      1
   354   351   355      1
   355   352   353      1
   356   352   356      1
   357   352   357      1
   358   353   358      1
   359   358   359      1
   360   358   361      1
   361   358   362      1
   362   359   360      1
   363   359   363      1
   364   359   364      1
   365   360   365      1
   366   365   366      1
   367   365   368      1
   368   365   369      1
   369   366   367      1
   370   366   370      1
   371   366   371      1
   372   367   372      1
   373   372   373      1
   374   372   375      1
   375   372   376      1
   376   373   374      1
   377   373   377      1
   378   373   378      1
   379   374   379      1
   380   379   380      1
   381   379   382      1
   382   379   383      1
   383   380   381      1
   384   380   384      1
   385   380   385      1
   386   381   386      1
   387   386   387      1
   388   386   389      1
   389   386   390      1
   390   387   388      1
   391   387   391      1
   392   387   392      1
   393   388   393      1
   394   393   394      1
   395   393   396      1
   396   393   397      1
   397   394   395      1
   398   394   398      1
   399   394   399      1
   400   395   400      1
   401   400   401      1
   402   400   403      1
   403   400   404      1
   404   401   402      1
   405   401   405      1
   406   401   406      1
   407   402   407      1
   408   407   408      1
   409   407   410      1
   410   407   411      1
   411   408   409      1
   412   408   412      1
   413   408   413      1
   414   409   414      1
   415   414   415      1
   416   414   417      1
   417   414   418      1
   418   415   416      1
   419   415   419      1
   420   415   420      1
   421   416   421      1
   422   421   422      1
   423   421   424      1
   424   421   425      1
   425   422   423      1
   426   422   426      1
   427   422   427      1
   428   423   428      1
   429   428   429      1
   430   428   431      1
   431   428   432      1
   432   429   430      1
   433   429   433      1
   434   429   434      1
   435   430   435      1
   436   435   436      1
   437   435   438      1
   438   435   439      1
   439   436   437      1
   440   436   440      1
   441   436   441      1
   442   437   442      1
   443   442   443      1
   444   442   445      1
   445   442   446      1
   446   443   444      1
   447   443   447      1
   448   443   448      1
   449   444   449      1
   450   449   450      1
   451   449   452      1
   452   449   453      1
   453   450   451      1
   454   450   454      1
   455   450   455      1
   456   451   456      1
   457   456   457      1
   458   456   459      1
   459   456   460      1
   460   457   458      1
   461   457   461      1
   462   457   462      1
   463   458   463      1
   464   463   464      1
   465   463   466      1
   466   463   467      1
   467   464   465      1
   468   464   468      1
   469   464   469      1
   470   465   470      1
   471   470   471      1
   472   470   473      1
   473   470   474      1
   474   471   472      1
   475   471   475      1
   476   471   476      1
   477   472   477      1
   478   477   478      1
   479   477   480      1
   480   477   481      1
   481   478   479      1
   482   478   482      1
   483   478   483      1
   484   479   484      1
   485   484   485      1
   486   484   487      1
   487   484   488      1
   488   485   486      1
   489   485   489      1
   490   485   490      1
   491   486   491      1
   492   491   492      1
   493   491   494      1
   494   491   495      1
   495   492   493      1
   496   492   496      1
   497   492   497      1
   498   493   498      1
   499   498   499      1
   500   498   501      1
   501   498   502      1
   502   499   500      1
   503   499   503      1
   504   499   504      1
   505   500   505      1
   506   505   506      1
   507   505   508      1
   508   505   509      1
   509   506   507      1
   510   506   510      1
   511   506   511      1
   512   507   512      1
   513   512   513      1
   514   512   515      1
   515   512   516      1
   516   513   514      1
   517   513   517      1
   518   513   518      1
   519   514   519      1
   520   519   520      1
   521   519   522      1
   522   519   523      1
   523   520   521      1
   524   520   524      1
   525   520   525      1
   526   521   526      1
   527   526   527      1
   528   526   529      1
   529   526   530      1
   530   527   528      1
   531   527   531      1
   532   527   532      1
   533   528   533      1
   534   533   534      1
   535   533   536      1
   536   533   537      1
   537   534   535      1
   538   534   538      1
   539   534   539      1
   540   535   540      1
   541   540   541      1
   542   540   543      1
   543   540   544      1
   544   541   542      1
   545   541   545      1
   546   541   546      1
   547   542   547      1
   548   547   548      1
   549   547   550      1
   550   547   551      1
   551   548   549      1
   552   548   552      1
   553   548   553      1
   554   549   554      1
   555   554   555      1
   556   554   557      1
   557   554   558      1
   558   555   556      1
   559   555   559      1
   560   555   560      1
   561   556   561      1
   562   561   562      1
   563   561   564      1
   564   561   565      1
   565   562   563      1
   566   562   566      1
   567   562   567      1
   568   563   568      1
   569   568   569      1
   570   568   571      1
   571   568   572      1
   572   569   570      1
   573   569   573      1
   574   569   574      1
   575   570   575      1
   576   575   576      1
   577   575   578      1
   578   575   579      1
   579   576   577      1
   580   576   580      1
   581   576   581      1
   582   577   582      1
   583   582   583      1
   584   582   585      1
   585   582   586      1
   586   583   584      1
   587   583   587      1
   588   583   588      1
   589   584   589      1
   590   589   590      1
   591   589   592      1
   592   589   593      1
   593   590   591      1
   594   590   594      1
   595   590   595      1
   596   591   596      1
   597   596   597      1
   598   596   599      1
   599   596   600      1
   600   597   598      1
   601   597   601      1
   602   597   602      1
   603   598   603      1
   604   603   604      1
   605   603   606      1
   606   603   607      1
   607   604   605      1
   608   604   608      1
   609   604   609      1
   610   605   610      1
   611   610   611      1
   612   610   613      1
   613   610   614      1
   614   611   612      1
   615   611   615      1
   616   611   616      1
   617   612   617      1
