###
### Created by PolyChef-cpp17 on Mon May 12 10:39:13 2025
###

@<TRIPOS>MOLECULE
NO_INFO
310 309 1 0 0
SMALL
USER_CHARGES


@<TRIPOS>ATOM
      1 C          48.7208  141.2221   79.6311 C.3       0      M_A    0.0000
      2 C          48.8742  141.2804   81.1481 C.3       0      M_A    0.0000
      3 O          50.1652  140.8130   81.5389 O.3       0      M_A    0.0000
      4 H          49.5605  140.6920   79.1690 H         0      M_A    0.0000
      5 H          48.7161  142.2443   79.2357 H         0      M_A    0.0000
      6 H          48.1306  140.6431   81.6427 H         0      M_A    0.0000
      7 H          48.6931  142.3031   81.5088 H         0      M_A    0.0000
      8 C          51.1515  141.1636   80.5896 C.3       1      M_A    0.0000
      9 C          52.4376  141.6502   81.2507 C.3       1      M_A    0.0000
     10 O          53.3067  140.5512   81.5239 O.3       1      M_A    0.0000
     11 H          51.3425  140.3038   79.9386 H         1      M_A    0.0000
     12 H          50.7472  141.9686   79.9653 H         1      M_A    0.0000
     13 H          52.2246  142.1460   82.2061 H         1      M_A    0.0000
     14 H          52.9299  142.4012   80.6162 H         1      M_A    0.0000
     15 C          53.9493  140.6983   82.7739 C.3       2      M_A    0.0000
     16 C          52.9840  140.5140   83.9410 C.3       2      M_A    0.0000
     17 O          53.7020  140.3699   85.1664 O.3       2      M_A    0.0000
     18 H          54.7816  139.9889   82.8334 H         2      M_A    0.0000
     19 H          54.3713  141.7088   82.8190 H         2      M_A    0.0000
     20 H          52.3757  139.6105   83.8085 H         2      M_A    0.0000
     21 H          52.2792  141.3566   83.9872 H         2      M_A    0.0000
     22 C          54.8351  141.2133   85.2041 C.3       3      M_A    0.0000
     23 C          54.5519  142.5232   85.9337 C.3       3      M_A    0.0000
     24 O          54.8997  142.4127   87.3138 O.3       3      M_A    0.0000
     25 H          55.6669  140.6737   85.6693 H         3      M_A    0.0000
     26 H          55.1225  141.4381   84.1706 H         3      M_A    0.0000
     27 H          53.4860  142.7783   85.8829 H         3      M_A    0.0000
     28 H          55.0908  143.3509   85.4505 H         3      M_A    0.0000
     29 C          53.8334  142.8143   88.1497 C.3       4      M_A    0.0000
     30 C          54.0356  144.2222   88.7019 C.3       4      M_A    0.0000
     31 O          52.8969  145.0371   88.4241 O.3       4      M_A    0.0000
     32 H          52.8941  142.7398   87.5913 H         4      M_A    0.0000
     33 H          53.7779  142.1095   88.9872 H         4      M_A    0.0000
     34 H          54.9055  144.7043   88.2388 H         4      M_A    0.0000
     35 H          54.2438  144.1804   89.7808 H         4      M_A    0.0000
     36 C          53.0987  146.3698   88.8485 C.3       5      M_A    0.0000
     37 C          52.4770  147.3787   87.8875 C.3       5      M_A    0.0000
     38 O          51.7367  148.3647   88.6069 O.3       5      M_A    0.0000
     39 H          52.6960  146.4875   89.8602 H         5      M_A    0.0000
     40 H          54.1790  146.5474   88.8990 H         5      M_A    0.0000
     41 H          51.7820  146.8858   87.1962 H         5      M_A    0.0000
     42 H          53.2569  147.8399   87.2645 H         5      M_A    0.0000
     43 C          51.0029  149.1994   87.7342 C.3       6      M_A    0.0000
     44 C          51.2671  150.6790   87.9975 C.3       6      M_A    0.0000
     45 O          51.2429  151.4168   86.7756 O.3       6      M_A    0.0000
     46 H          51.2426  148.9331   86.6993 H         6      M_A    0.0000
     47 H          49.9372  148.9963   87.8903 H         6      M_A    0.0000
     48 H          52.2552  150.8267   88.4509 H         6      M_A    0.0000
     49 H          50.5351  151.0730   88.7171 H         6      M_A    0.0000
     50 C          50.3206  152.4857   86.8351 C.3       7      M_A    0.0000
     51 C          51.0093  153.8442   86.7429 C.3       7      M_A    0.0000
     52 O          50.1974  154.7688   86.0191 O.3       7      M_A    0.0000
     53 H          49.5797  152.3632   86.0378 H         7      M_A    0.0000
     54 H          49.7909  152.4210   87.7925 H         7      M_A    0.0000
     55 H          51.9670  153.7636   86.2137 H         7      M_A    0.0000
     56 H          51.2433  154.2201   87.7493 H         7      M_A    0.0000
     57 C          49.8151  155.8637   86.8265 C.3       8      M_A    0.0000
     58 C          49.5818  157.1286   86.0057 C.3       8      M_A    0.0000
     59 O          48.2113  157.5225   86.0719 O.3       8      M_A    0.0000
     60 H          48.9204  155.5919   87.3968 H         8      M_A    0.0000
     61 H          50.6217  156.0507   87.5446 H         8      M_A    0.0000
     62 H          49.8248  156.9611   84.9489 H         8      M_A    0.0000
     63 H          50.2464  157.9333   86.3515 H         8      M_A    0.0000
     64 C          47.6275  157.1581   87.3061 C.3       9      M_A    0.0000
     65 C          46.5735  158.1630   87.7616 C.3       9      M_A    0.0000
     66 O          45.3093  157.8654   87.1689 O.3       9      M_A    0.0000
     67 H          47.2028  156.1525   87.2174 H         9      M_A    0.0000
     68 H          48.4250  157.1160   88.0568 H         9      M_A    0.0000
     69 H          46.8461  159.1819   87.4597 H         9      M_A    0.0000
     70 H          46.5081  158.1732   88.8591 H         9      M_A    0.0000
     71 C          44.8056  158.9687   86.4437 C.3      10      M_A    0.0000
     72 C          43.6840  159.6835   87.1916 C.3      10      M_A    0.0000
     73 O          43.8093  161.0984   87.0484 O.3      10      M_A    0.0000
     74 H          45.6294  159.6541   86.2178 H        10      M_A    0.0000
     75 H          44.4143  158.5952   85.4905 H        10      M_A    0.0000
     76 H          43.7212  159.4574   88.2645 H        10      M_A    0.0000
     77 H          42.7054  159.3307   86.8354 H        10      M_A    0.0000
     78 C          43.0231  161.7862   88.0000 C.3      11      M_A    0.0000
     79 C          43.3281  163.2810   88.0240 C.3      11      M_A    0.0000
     80 O          42.5199  163.9720   87.0715 O.3      11      M_A    0.0000
     81 H          41.9643  161.6021   87.7890 H        11      M_A    0.0000
     82 H          43.2427  161.3637   88.9872 H        11      M_A    0.0000
     83 H          44.3770  163.4720   87.7649 H        11      M_A    0.0000
     84 H          43.1825  163.6818   89.0375 H        11      M_A    0.0000
     85 C          42.5838  165.3714   87.2573 C.3      12      M_A    0.0000
     86 C          44.0192  165.8885   87.2359 C.3      12      M_A    0.0000
     87 O          44.2519  166.6710   86.0648 O.3      12      M_A    0.0000
     88 H          41.9755  165.8619   86.4900 H        12      M_A    0.0000
     89 H          42.1381  165.6027   88.2315 H        12      M_A    0.0000
     90 H          44.7356  165.0576   87.2235 H        12      M_A    0.0000
     91 H          44.2291  166.4635   88.1493 H        12      M_A    0.0000
     92 C          43.0775  166.8046   85.2903 C.3      13      M_A    0.0000
     93 C          42.9304  168.2071   84.7077 C.3      13      M_A    0.0000
     94 O          42.5277  168.1412   83.3398 O.3      13      M_A    0.0000
     95 H          43.0828  166.0467   84.4996 H        13      M_A    0.0000
     96 H          42.2196  166.5990   85.9407 H        13      M_A    0.0000
     97 H          43.8836  168.7492   84.7438 H        13      M_A    0.0000
     98 H          42.2188  168.7939   85.3063 H        13      M_A    0.0000
     99 C          41.1467  168.4034   83.1940 C.3      14      M_A    0.0000
    100 C          40.7011  168.3398   81.7361 C.3      14      M_A    0.0000
    101 O          39.4200  167.7188   81.6310 O.3      14      M_A    0.0000
    102 H          40.5817  167.6967   83.8112 H        14      M_A    0.0000
    103 H          40.9522  169.4103   83.5806 H        14      M_A    0.0000
    104 H          41.4034  167.7475   81.1363 H        14      M_A    0.0000
    105 H          40.6940  169.3478   81.2970 H        14      M_A    0.0000
    106 C          39.4912  166.3354   81.9106 C.3      15      M_A    0.0000
    107 C          38.1448  165.7686   82.3508 C.3      15      M_A    0.0000
    108 O          37.2954  165.5625   81.2221 O.3      15      M_A    0.0000
    109 H          39.8709  165.8114   81.0270 H        15      M_A    0.0000
    110 H          40.2176  166.1919   82.7187 H        15      M_A    0.0000
    111 H          37.6294  166.4615   83.0276 H        15      M_A    0.0000
    112 H          38.2917  164.8370   82.9161 H        15      M_A    0.0000
    113 C          36.6337  166.7538   80.8483 C.3      16      M_A    0.0000
    114 C          35.3494  166.4780   80.0721 C.3      16      M_A    0.0000
    115 O          34.2243  167.0345   80.7521 O.3      16      M_A    0.0000
    116 H          36.4331  167.3480   81.7462 H        16      M_A    0.0000
    117 H          37.3145  167.3324   80.2134 H        16      M_A    0.0000
    118 H          35.1737  165.3994   79.9744 H        16      M_A    0.0000
    119 H          35.4327  166.8712   79.0486 H        16      M_A    0.0000
    120 C          33.0967  167.1171   79.9045 C.3      17      M_A    0.0000
    121 C          31.7904  166.9088   80.6650 C.3      17      M_A    0.0000
    122 O          31.1914  168.1647   80.9843 O.3      17      M_A    0.0000
    123 H          33.1054  168.0846   79.3914 H        17      M_A    0.0000
    124 H          33.1909  166.3362   79.1412 H        17      M_A    0.0000
    125 H          31.9662  166.3792   81.6096 H        17      M_A    0.0000
    126 H          31.1069  166.2772   80.0795 H        17      M_A    0.0000
    127 C          30.8241  168.2311   82.3472 C.3      18      M_A    0.0000
    128 C          29.3459  168.5631   82.5278 C.3      18      M_A    0.0000
    129 O          28.7066  167.5765   83.3377 O.3      18      M_A    0.0000
    130 H          31.0784  167.2827   82.8323 H        18      M_A    0.0000
    131 H          31.4244  169.0167   82.8201 H        18      M_A    0.0000
    132 H          28.8267  168.5816   81.5615 H        18      M_A    0.0000
    133 H          29.2326  169.5685   82.9584 H        18      M_A    0.0000
    134 C          27.4295  168.0056   83.7640 C.3      19      M_A    0.0000
    135 C          26.5547  168.4524   82.5965 C.3      19      M_A    0.0000
    136 O          25.2912  168.9205   83.0683 O.3      19      M_A    0.0000
    137 H          26.9518  167.1985   84.3297 H        19      M_A    0.0000
    138 H          27.5687  168.8515   84.4468 H        19      M_A    0.0000
    139 H          26.3607  167.6190   81.9098 H        19      M_A    0.0000
    140 H          27.0723  169.2234   82.0078 H        19      M_A    0.0000
    141 C          24.8409  170.0335   82.3231 C.3      20      M_A    0.0000
    142 C          24.9497  169.7996   80.8192 C.3      20      M_A    0.0000
    143 O          24.1402  170.7355   80.1073 O.3      20      M_A    0.0000
    144 H          23.8106  170.2649   82.6137 H        20      M_A    0.0000
    145 H          25.4629  170.8943   82.5939 H        20      M_A    0.0000
    146 H          24.6014  168.7941   80.5521 H        20      M_A    0.0000
    147 H          26.0007  169.8568   80.5013 H        20      M_A    0.0000
    148 C          24.9246  171.7458   79.5066 C.3      21      M_A    0.0000
    149 C          24.3511  173.1387   79.7498 C.3      21      M_A    0.0000
    150 O          25.3982  174.0715   80.0166 O.3      21      M_A    0.0000
    151 H          25.9515  171.6704   79.8799 H        21      M_A    0.0000
    152 H          24.9495  171.5561   78.4274 H        21      M_A    0.0000
    153 H          23.6801  173.1408   80.6179 H        21      M_A    0.0000
    154 H          23.7437  173.4546   78.8895 H        21      M_A    0.0000
    155 C          24.8844  175.3231   80.4246 C.3      22      M_A    0.0000
    156 C          25.8223  176.4726   80.0679 C.3      22      M_A    0.0000
    157 O          25.4216  177.0833   78.8414 O.3      22      M_A    0.0000
    158 H          23.8953  175.4664   79.9767 H        22      M_A    0.0000
    159 H          24.7548  175.2957   81.5126 H        22      M_A    0.0000
    160 H          26.8506  176.1136   79.9356 H        22      M_A    0.0000
    161 H          25.8540  177.2048   80.8875 H        22      M_A    0.0000
    162 C          26.3760  178.0260   78.3970 C.3      23      M_A    0.0000
    163 C          26.3516  178.1966   76.8810 C.3      23      M_A    0.0000
    164 O          26.3965  179.5801   76.5322 O.3      23      M_A    0.0000
    165 H          26.1992  178.9800   78.9051 H        23      M_A    0.0000
    166 H          27.3676  177.6690   78.6978 H        23      M_A    0.0000
    167 H          25.4310  177.7798   76.4537 H        23      M_A    0.0000
    168 H          27.1832  177.6416   76.4232 H        23      M_A    0.0000
    169 C          26.6536  179.7581   75.1542 C.3      24      M_A    0.0000
    170 C          27.2848  181.1154   74.8585 C.3      24      M_A    0.0000
    171 O          28.4426  180.9608   74.0378 O.3      24      M_A    0.0000
    172 H          27.2909  178.9404   74.8010 H        24      M_A    0.0000
    173 H          25.6984  179.6877   74.6213 H        24      M_A    0.0000
    174 H          27.6024  181.6108   75.7845 H        24      M_A    0.0000
    175 H          26.5478  181.7824   74.3885 H        24      M_A    0.0000
    176 C          28.9125  182.2072   73.5661 C.3      25      M_A    0.0000
    177 C          30.4301  182.3255   73.6707 C.3      25      M_A    0.0000
    178 O          30.9270  183.2561   72.7089 O.3      25      M_A    0.0000
    179 H          28.5751  182.3489   72.5339 H        25      M_A    0.0000
    180 H          28.4527  182.9933   74.1760 H        25      M_A    0.0000
    181 H          30.9136  181.3604   73.4742 H        25      M_A    0.0000
    182 H          30.7189  182.6133   74.6918 H        25      M_A    0.0000
    183 C          31.9054  184.1073   73.2703 C.3      26      M_A    0.0000
    184 C          32.0964  185.3808   72.4518 C.3      26      M_A    0.0000
    185 O          32.5204  186.4556   73.2902 O.3      26      M_A    0.0000
    186 H          31.6267  184.3395   74.3036 H        26      M_A    0.0000
    187 H          32.8537  183.5583   73.2982 H        26      M_A    0.0000
    188 H          31.1561  185.6864   71.9762 H        26      M_A    0.0000
    189 H          32.8118  185.2039   71.6359 H        26      M_A    0.0000
    190 C          33.9297  186.5419   73.3475 C.3      27      M_A    0.0000
    191 C          34.4873  187.5199   72.3177 C.3      27      M_A    0.0000
    192 O          35.0559  188.6582   72.9650 O.3      27      M_A    0.0000
    193 H          34.2294  186.8232   74.3627 H        27      M_A    0.0000
    194 H          34.3368  185.5445   73.1461 H        27      M_A    0.0000
    195 H          33.6948  187.8828   71.6514 H        27      M_A    0.0000
    196 H          35.2238  187.0158   71.6755 H        27      M_A    0.0000
    197 C          35.9472  189.3469   72.1117 C.3      28      M_A    0.0000
    198 C          35.2144  190.1179   71.0177 C.3      28      M_A    0.0000
    199 O          36.0042  191.2177   70.5657 O.3      28      M_A    0.0000
    200 H          36.5742  190.0138   72.7131 H        28      M_A    0.0000
    201 H          36.6054  188.6062   71.6433 H        28      M_A    0.0000
    202 H          34.2671  190.5257   71.3921 H        28      M_A    0.0000
    203 H          34.9543  189.4447   70.1882 H        28      M_A    0.0000
    204 C          37.1894  190.7783   69.9340 C.3      29      M_A    0.0000
    205 C          38.3000  190.4838   70.9380 C.3      29      M_A    0.0000
    206 O          39.1428  189.4359   70.4590 O.3      29      M_A    0.0000
    207 H          36.9637  189.8969   69.3244 H        29      M_A    0.0000
    208 H          37.5248  191.5724   69.2571 H        29      M_A    0.0000
    209 H          37.8837  190.1572   71.8992 H        29      M_A    0.0000
    210 H          38.8760  191.3971   71.1454 H        29      M_A    0.0000
    211 C          39.2738  189.4796   69.0527 C.3      30      M_A    0.0000
    212 C          40.7273  189.6379   68.6161 C.3      30      M_A    0.0000
    213 O          41.1945  188.4435   67.9892 O.3      30      M_A    0.0000
    214 H          38.8286  188.5754   68.6240 H        30      M_A    0.0000
    215 H          38.6984  190.3377   68.6871 H        30      M_A    0.0000
    216 H          41.3772  189.8322   69.4784 H        30      M_A    0.0000
    217 H          40.8309  190.5062   67.9496 H        30      M_A    0.0000
    218 C          42.3848  188.6722   67.2628 C.3      31      M_A    0.0000
    219 C          43.4117  189.4554   68.0753 C.3      31      M_A    0.0000
    220 O          44.7367  189.1250   67.6591 O.3      31      M_A    0.0000
    221 H          42.7922  187.7107   66.9325 H        31      M_A    0.0000
    222 H          42.1274  189.2485   66.3668 H        31      M_A    0.0000
    223 H          43.3333  189.2154   69.1431 H        31      M_A    0.0000
    224 H          43.2223  190.5349   67.9869 H        31      M_A    0.0000
    225 C          44.8433  189.0927   66.2504 C.3      32      M_A    0.0000
    226 C          44.2000  190.3127   65.5978 C.3      32      M_A    0.0000
    227 O          44.8318  190.6051   64.3515 O.3      32      M_A    0.0000
    228 H          45.8996  189.0074   65.9739 H        32      M_A    0.0000
    229 H          44.3336  188.1901   65.8944 H        32      M_A    0.0000
    230 H          44.3044  191.1997   66.2351 H        32      M_A    0.0000
    231 H          43.1202  190.1496   65.4701 H        32      M_A    0.0000
    232 C          44.0000  191.3901   63.5216 C.3      33      M_A    0.0000
    233 C          44.1882  192.8841   63.7684 C.3      33      M_A    0.0000
    234 O          44.2479  193.5922   62.5303 O.3      33      M_A    0.0000
    235 H          44.1962  191.1346   62.4748 H        33      M_A    0.0000
    236 H          42.9593  191.1233   63.7384 H        33      M_A    0.0000
    237 H          45.1261  193.0784   64.3036 H        33      M_A    0.0000
    238 H          43.3816  193.2673   64.4098 H        33      M_A    0.0000
    239 C          44.2850  194.9899   62.7352 C.3      34      M_A    0.0000
    240 C          45.3149  195.6741   61.8412 C.3      34      M_A    0.0000
    241 O          45.1211  197.0885   61.8463 O.3      34      M_A    0.0000
    242 H          43.2834  195.4018   62.5714 H        34      M_A    0.0000
    243 H          44.5499  195.1700   63.7834 H        34      M_A    0.0000
    244 H          45.2212  195.3335   60.8025 H        34      M_A    0.0000
    245 H          46.3324  195.4088   62.1626 H        34      M_A    0.0000
    246 C          46.3479  197.7790   61.7242 C.3      35      M_A    0.0000
    247 C          46.1935  199.0942   60.9661 C.3      35      M_A    0.0000
    248 O          47.0142  200.1068   61.5483 O.3      35      M_A    0.0000
    249 H          46.7654  197.9452   62.7230 H        35      M_A    0.0000
    250 H          47.0447  197.1340   61.1768 H        35      M_A    0.0000
    251 H          45.1563  199.4498   61.0042 H        35      M_A    0.0000
    252 H          46.4314  198.9493   59.9024 H        35      M_A    0.0000
    253 C          46.5451  201.4006   61.2274 C.3      36      M_A    0.0000
    254 C          47.5573  202.4840   61.5878 C.3      36      M_A    0.0000
    255 O          47.7645  203.3631   60.4824 O.3      36      M_A    0.0000
    256 H          46.2918  201.4349   60.1624 H        36      M_A    0.0000
    257 H          45.6228  201.5747   61.7933 H        36      M_A    0.0000
    258 H          48.5291  202.0438   61.8441 H        36      M_A    0.0000
    259 H          47.2230  203.0342   62.4792 H        36      M_A    0.0000
    260 C          47.9391  204.6988   60.9094 C.3      37      M_A    0.0000
    261 C          49.3206  205.2396   60.5530 C.3      37      M_A    0.0000
    262 O          49.2069  206.4619   59.8244 O.3      37      M_A    0.0000
    263 H          47.1477  205.3191   60.4753 H        37      M_A    0.0000
    264 H          47.8191  204.7228   61.9986 H        37      M_A    0.0000
    265 H          49.8688  204.5300   59.9206 H        37      M_A    0.0000
    266 H          49.9231  205.3712   61.4633 H        37      M_A    0.0000
    267 C          48.7022  206.2432   58.5228 C.3      38      M_A    0.0000
    268 C          48.7892  207.4954   57.6553 C.3      38      M_A    0.0000
    269 O          49.7882  207.3378   56.6477 O.3      38      M_A    0.0000
    270 H          49.2426  205.4073   58.0657 H        38      M_A    0.0000
    271 H          47.6508  205.9476   58.6143 H        38      M_A    0.0000
    272 H          49.0642  208.3711   58.2564 H        38      M_A    0.0000
    273 H          47.8077  207.7200   57.2135 H        38      M_A    0.0000
    274 C          50.0151  208.5461   55.9510 C.3      39      M_A    0.0000
    275 C          49.6489  208.4346   54.4740 C.3      39      M_A    0.0000
    276 O          49.2748  209.7102   53.9535 O.3      39      M_A    0.0000
    277 H          49.4534  209.3503   56.4379 H        39      M_A    0.0000
    278 H          51.0808  208.7883   56.0347 H        39      M_A    0.0000
    279 H          48.7967  207.7586   54.3307 H        39      M_A    0.0000
    280 H          50.4855  208.0012   53.9072 H        39      M_A    0.0000
    281 C          50.3239  210.6484   54.0801 C.3      40      M_A    0.0000
    282 C          51.6011  210.1780   53.3906 C.3      40      M_A    0.0000
    283 O          52.1361  211.2142   52.5672 O.3      40      M_A    0.0000
    284 H          49.9912  211.6125   53.6808 H        40      M_A    0.0000
    285 H          50.5272  210.7845   55.1484 H        40      M_A    0.0000
    286 H          51.4029  209.3140   52.7440 H        40      M_A    0.0000
    287 H          52.3344  209.8424   54.1380 H        40      M_A    0.0000
    288 C          52.8873  212.1409   53.3247 C.3      41      M_A    0.0000
    289 C          53.8877  212.9080   52.4652 C.3      41      M_A    0.0000
    290 O          53.4754  214.2657   52.3087 O.3      41      M_A    0.0000
    291 H          52.2009  212.8235   53.8368 H        41      M_A    0.0000
    292 H          53.4346  211.5829   54.0932 H        41      M_A    0.0000
    293 H          53.9613  212.4693   51.4623 H        41      M_A    0.0000
    294 H          54.8935  212.8437   52.9048 H        41      M_A    0.0000
    295 C          54.5703  215.1075   52.0095 C.3      42      M_A    0.0000
    296 C          54.2675  216.0534   50.8511 C.3      42      M_A    0.0000
    297 O          54.4395  215.3853   49.6014 O.3      42      M_A    0.0000
    298 H          54.8505  215.6632   52.9107 H        42      M_A    0.0000
    299 H          55.4194  214.4712   51.7350 H        42      M_A    0.0000
    300 H          54.9473  216.9146   50.8596 H        42      M_A    0.0000
    301 H          53.2513  216.4614   50.9500 H        42      M_A    0.0000
    302 C          54.1095  216.2269   48.5153 C.3      43      M_A    0.0000
    303 C          52.8596  215.7520   47.7801 C.3      43      M_A    0.0000
    304 O          51.6972  216.3960   48.3016 O.3      43      M_A    0.0000
    305 H          53.9871  217.2518   48.8816 H        43      M_A    0.0000
    306 H          54.9544  216.2232   47.8172 H        43      M_A    0.0000
    307 H          52.7191  214.6708   47.9026 H        43      M_A    0.0000
    308 H          52.9643  215.9293   46.7000 H        43      M_A    0.0000
    309 H          51.4775  217.2052   47.7944 H        43      M_A    0.0000
    310 H          47.7891  140.7424   79.3313 H         0      M_A    0.0000
@<TRIPOS>BOND
     1     1     2      1
     2     1     4      1
     3     1     5      1
     4     1   310      1
     5     2     3      1
     6     2     6      1
     7     2     7      1
     8     3     8      1
     9     8     9      1
    10     8    11      1
    11     8    12      1
    12     9    10      1
    13     9    13      1
    14     9    14      1
    15    10    15      1
    16    15    16      1
    17    15    18      1
    18    15    19      1
    19    16    17      1
    20    16    20      1
    21    16    21      1
    22    17    22      1
    23    22    23      1
    24    22    25      1
    25    22    26      1
    26    23    24      1
    27    23    27      1
    28    23    28      1
    29    24    29      1
    30    29    30      1
    31    29    32      1
    32    29    33      1
    33    30    31      1
    34    30    34      1
    35    30    35      1
    36    31    36      1
    37    36    37      1
    38    36    39      1
    39    36    40      1
    40    37    38      1
    41    37    41      1
    42    37    42      1
    43    38    43      1
    44    43    44      1
    45    43    46      1
    46    43    47      1
    47    44    45      1
    48    44    48      1
    49    44    49      1
    50    45    50      1
    51    50    51      1
    52    50    53      1
    53    50    54      1
    54    51    52      1
    55    51    55      1
    56    51    56      1
    57    52    57      1
    58    57    58      1
    59    57    60      1
    60    57    61      1
    61    58    59      1
    62    58    62      1
    63    58    63      1
    64    59    64      1
    65    64    65      1
    66    64    67      1
    67    64    68      1
    68    65    66      1
    69    65    69      1
    70    65    70      1
    71    66    71      1
    72    71    72      1
    73    71    74      1
    74    71    75      1
    75    72    73      1
    76    72    76      1
    77    72    77      1
    78    73    78      1
    79    78    79      1
    80    78    81      1
    81    78    82      1
    82    79    80      1
    83    79    83      1
    84    79    84      1
    85    80    85      1
    86    85    86      1
    87    85    88      1
    88    85    89      1
    89    86    87      1
    90    86    90      1
    91    86    91      1
    92    87    92      1
    93    92    93      1
    94    92    95      1
    95    92    96      1
    96    93    94      1
    97    93    97      1
    98    93    98      1
    99    94    99      1
   100    99   100      1
   101    99   102      1
   102    99   103      1
   103   100   101      1
   104   100   104      1
   105   100   105      1
   106   101   106      1
   107   106   107      1
   108   106   109      1
   109   106   110      1
   110   107   108      1
   111   107   111      1
   112   107   112      1
   113   108   113      1
   114   113   114      1
   115   113   116      1
   116   113   117      1
   117   114   115      1
   118   114   118      1
   119   114   119      1
   120   115   120      1
   121   120   121      1
   122   120   123      1
   123   120   124      1
   124   121   122      1
   125   121   125      1
   126   121   126      1
   127   122   127      1
   128   127   128      1
   129   127   130      1
   130   127   131      1
   131   128   129      1
   132   128   132      1
   133   128   133      1
   134   129   134      1
   135   134   135      1
   136   134   137      1
   137   134   138      1
   138   135   136      1
   139   135   139      1
   140   135   140      1
   141   136   141      1
   142   141   142      1
   143   141   144      1
   144   141   145      1
   145   142   143      1
   146   142   146      1
   147   142   147      1
   148   143   148      1
   149   148   149      1
   150   148   151      1
   151   148   152      1
   152   149   150      1
   153   149   153      1
   154   149   154      1
   155   150   155      1
   156   155   156      1
   157   155   158      1
   158   155   159      1
   159   156   157      1
   160   156   160      1
   161   156   161      1
   162   157   162      1
   163   162   163      1
   164   162   165      1
   165   162   166      1
   166   163   164      1
   167   163   167      1
   168   163   168      1
   169   164   169      1
   170   169   170      1
   171   169   172      1
   172   169   173      1
   173   170   171      1
   174   170   174      1
   175   170   175      1
   176   171   176      1
   177   176   177      1
   178   176   179      1
   179   176   180      1
   180   177   178      1
   181   177   181      1
   182   177   182      1
   183   178   183      1
   184   183   184      1
   185   183   186      1
   186   183   187      1
   187   184   185      1
   188   184   188      1
   189   184   189      1
   190   185   190      1
   191   190   191      1
   192   190   193      1
   193   190   194      1
   194   191   192      1
   195   191   195      1
   196   191   196      1
   197   192   197      1
   198   197   198      1
   199   197   200      1
   200   197   201      1
   201   198   199      1
   202   198   202      1
   203   198   203      1
   204   199   204      1
   205   204   205      1
   206   204   207      1
   207   204   208      1
   208   205   206      1
   209   205   209      1
   210   205   210      1
   211   206   211      1
   212   211   212      1
   213   211   214      1
   214   211   215      1
   215   212   213      1
   216   212   216      1
   217   212   217      1
   218   213   218      1
   219   218   219      1
   220   218   221      1
   221   218   222      1
   222   219   220      1
   223   219   223      1
   224   219   224      1
   225   220   225      1
   226   225   226      1
   227   225   228      1
   228   225   229      1
   229   226   227      1
   230   226   230      1
   231   226   231      1
   232   227   232      1
   233   232   233      1
   234   232   235      1
   235   232   236      1
   236   233   234      1
   237   233   237      1
   238   233   238      1
   239   234   239      1
   240   239   240      1
   241   239   242      1
   242   239   243      1
   243   240   241      1
   244   240   244      1
   245   240   245      1
   246   241   246      1
   247   246   247      1
   248   246   249      1
   249   246   250      1
   250   247   248      1
   251   247   251      1
   252   247   252      1
   253   248   253      1
   254   253   254      1
   255   253   256      1
   256   253   257      1
   257   254   255      1
   258   254   258      1
   259   254   259      1
   260   255   260      1
   261   260   261      1
   262   260   263      1
   263   260   264      1
   264   261   262      1
   265   261   265      1
   266   261   266      1
   267   262   267      1
   268   267   268      1
   269   267   270      1
   270   267   271      1
   271   268   269      1
   272   268   272      1
   273   268   273      1
   274   269   274      1
   275   274   275      1
   276   274   277      1
   277   274   278      1
   278   275   276      1
   279   275   279      1
   280   275   280      1
   281   276   281      1
   282   281   282      1
   283   281   284      1
   284   281   285      1
   285   282   283      1
   286   282   286      1
   287   282   287      1
   288   283   288      1
   289   288   289      1
   290   288   291      1
   291   288   292      1
   292   289   290      1
   293   289   293      1
   294   289   294      1
   295   290   295      1
   296   295   296      1
   297   295   298      1
   298   295   299      1
   299   296   297      1
   300   296   300      1
   301   296   301      1
   302   297   302      1
   303   302   303      1
   304   302   305      1
   305   302   306      1
   306   303   304      1
   307   303   307      1
   308   303   308      1
   309   304   309      1
