###
### Created by PolyChef-cpp17 on Mon May 12 10:39:08 2025
###

@<TRIPOS>MOLECULE
NO_INFO
2053 2052 1 0 0
SMALL
USER_CHARGES


@<TRIPOS>ATOM
      1 C         180.8873  156.5681   34.8456 C.3       0      M_A    0.0000
      2 C         181.3983  155.1990   35.2843 C.3       0      M_A    0.0000
      3 O         180.3408  154.2402   35.2644 O.3       0      M_A    0.0000
      4 H         180.4048  156.5140   33.8638 H         0      M_A    0.0000
      5 H         180.1363  156.9136   35.5653 H         0      M_A    0.0000
      6 H         181.8578  155.2668   36.2808 H         0      M_A    0.0000
      7 H         182.1824  154.8373   34.6074 H         0      M_A    0.0000
      8 C         179.5497  154.3185   36.4327 C.3       1      M_A    0.0000
      9 C         178.5401  153.1777   36.5200 C.3       1      M_A    0.0000
     10 O         177.2165  153.6624   36.2943 O.3       1      M_A    0.0000
     11 H         179.0492  155.2923   36.4608 H         1      M_A    0.0000
     12 H         180.2203  154.2655   37.2980 H         1      M_A    0.0000
     13 H         178.6207  152.6734   37.4937 H         1      M_A    0.0000
     14 H         178.7443  152.4137   35.7595 H         1      M_A    0.0000
     15 C         176.3228  152.6081   35.9999 C.3       2      M_A    0.0000
     16 C         174.8781  152.9709   36.3303 C.3       2      M_A    0.0000
     17 O         174.2031  151.8565   36.9137 O.3       2      M_A    0.0000
     18 H         176.6387  151.7102   36.5416 H         2      M_A    0.0000
     19 H         176.3979  152.3922   34.9280 H         2      M_A    0.0000
     20 H         174.3596  153.3246   35.4275 H         2      M_A    0.0000
     21 H         174.8358  153.7955   37.0529 H         2      M_A    0.0000
     22 C         173.7496  150.9522   35.9270 C.3       3      M_A    0.0000
     23 C         172.6372  151.5483   35.0696 C.3       3      M_A    0.0000
     24 O         171.3653  151.3369   35.6822 O.3       3      M_A    0.0000
     25 H         173.4213  150.0276   36.4136 H         3      M_A    0.0000
     26 H         174.5999  150.7032   35.2818 H         3      M_A    0.0000
     27 H         172.6690  151.1220   34.0566 H         3      M_A    0.0000
     28 H         172.7694  152.6312   34.9524 H         3      M_A    0.0000
     29 C         171.2119  152.1290   36.8423 C.3       4      M_A    0.0000
     30 C         172.0002  151.5738   38.0249 C.3       4      M_A    0.0000
     31 O         171.1529  150.7955   38.8701 O.3       4      M_A    0.0000
     32 H         170.1461  152.2105   37.0810 H         4      M_A    0.0000
     33 H         171.5782  153.1363   36.6135 H         4      M_A    0.0000
     34 H         172.4765  152.3935   38.5818 H         4      M_A    0.0000
     35 H         172.8127  150.9206   37.6831 H         4      M_A    0.0000
     36 C         169.8423  151.3221   38.9148 C.3       5      M_A    0.0000
     37 C         169.0310  150.7455   40.0712 C.3       5      M_A    0.0000
     38 O         168.3649  149.5491   39.6677 O.3       5      M_A    0.0000
     39 H         169.3495  151.1359   37.9546 H         5      M_A    0.0000
     40 H         169.9196  152.4080   39.0426 H         5      M_A    0.0000
     41 H         168.3174  151.4941   40.4445 H         5      M_A    0.0000
     42 H         169.6807  150.4902   40.9177 H         5      M_A    0.0000
     43 C         168.2220  148.6477   40.7465 C.3       6      M_A    0.0000
     44 C         167.4116  147.4139   40.3603 C.3       6      M_A    0.0000
     45 O         166.4653  147.0970   41.3810 O.3       6      M_A    0.0000
     46 H         167.7647  149.1722   41.5923 H         6      M_A    0.0000
     47 H         169.2245  148.3308   41.0559 H         6      M_A    0.0000
     48 H         168.0829  146.5663   40.1602 H         6      M_A    0.0000
     49 H         166.8499  147.5874   39.4339 H         6      M_A    0.0000
     50 C         167.0845  146.9969   42.6473 C.3       7      M_A    0.0000
     51 C         166.4216  145.9426   43.5288 C.3       7      M_A    0.0000
     52 O         165.7583  146.5584   44.6328 O.3       7      M_A    0.0000
     53 H         167.0723  147.9801   43.1298 H         7      M_A    0.0000
     54 H         168.1326  146.7185   42.4889 H         7      M_A    0.0000
     55 H         167.1667  145.2090   43.8687 H         7      M_A    0.0000
     56 H         165.6677  145.3779   42.9661 H         7      M_A    0.0000
     57 C         164.5902  145.8503   44.9948 C.3       8      M_A    0.0000
     58 C         164.0784  146.2539   46.3744 C.3       8      M_A    0.0000
     59 O         164.6204  145.3973   47.3796 O.3       8      M_A    0.0000
     60 H         164.7950  144.7754   44.9481 H         8      M_A    0.0000
     61 H         163.8169  146.0730   44.2506 H         8      M_A    0.0000
     62 H         162.9791  146.2426   46.3896 H         8      M_A    0.0000
     63 H         164.3793  147.2800   46.6200 H         8      M_A    0.0000
     64 C         163.9029  145.5044   48.5922 C.3       9      M_A    0.0000
     65 C         164.7604  145.1410   49.8008 C.3       9      M_A    0.0000
     66 O         164.5986  143.7620   50.1328 O.3       9      M_A    0.0000
     67 H         163.0103  144.8721   48.5363 H         9      M_A    0.0000
     68 H         163.5676  146.5428   48.6948 H         9      M_A    0.0000
     69 H         164.5099  145.7894   50.6527 H         9      M_A    0.0000
     70 H         165.8247  145.3056   49.5908 H         9      M_A    0.0000
     71 C         165.3485  143.4146   51.2790 C.3      10      M_A    0.0000
     72 C         166.5212  142.4985   50.9419 C.3      10      M_A    0.0000
     73 O         166.6229  141.4432   51.8979 O.3      10      M_A    0.0000
     74 H         164.6828  142.9502   52.0143 H        10      M_A    0.0000
     75 H         165.7367  144.3394   51.7208 H        10      M_A    0.0000
     76 H         167.4531  143.0795   50.8870 H        10      M_A    0.0000
     77 H         166.3877  142.0365   49.9557 H        10      M_A    0.0000
     78 C         167.8974  141.4189   52.5078 C.3      11      M_A    0.0000
     79 C         168.3544  139.9984   52.8265 C.3      11      M_A    0.0000
     80 O         168.3884  139.7884   54.2380 O.3      11      M_A    0.0000
     81 H         167.8733  142.0383   53.4108 H        11      M_A    0.0000
     82 H         168.6124  141.8739   51.8128 H        11      M_A    0.0000
     83 H         169.3354  139.8039   52.3695 H        11      M_A    0.0000
     84 H         167.6643  139.2592   52.4009 H        11      M_A    0.0000
     85 C         169.4780  138.9704   54.6131 C.3      12      M_A    0.0000
     86 C         169.5943  137.7297   53.7326 C.3      12      M_A    0.0000
     87 O         169.7467  136.5590   54.5351 O.3      12      M_A    0.0000
     88 H         169.3733  138.6976   55.6686 H        12      M_A    0.0000
     89 H         170.3944  139.5632   54.5133 H        12      M_A    0.0000
     90 H         170.4297  137.8423   53.0268 H        12      M_A    0.0000
     91 H         168.6920  137.5950   53.1230 H        12      M_A    0.0000
     92 C         170.5014  136.8249   55.6998 C.3      13      M_A    0.0000
     93 C         171.6048  135.7937   55.9168 C.3      13      M_A    0.0000
     94 O         171.7012  135.4469   57.2982 O.3      13      M_A    0.0000
     95 H         169.8262  136.8685   56.5610 H        13      M_A    0.0000
     96 H         170.9584  137.8147   55.5865 H        13      M_A    0.0000
     97 H         172.5618  136.1753   55.5327 H        13      M_A    0.0000
     98 H         171.3953  134.8715   55.3605 H        13      M_A    0.0000
     99 C         172.4525  136.4016   58.0200 C.3      14      M_A    0.0000
    100 C         173.8268  135.8702   58.4163 C.3      14      M_A    0.0000
    101 O         173.7919  135.3272   59.7360 O.3      14      M_A    0.0000
    102 H         171.8810  136.7149   58.9001 H        14      M_A    0.0000
    103 H         172.5837  137.2813   57.3795 H        14      M_A    0.0000
    104 H         174.5805  136.6663   58.3312 H        14      M_A    0.0000
    105 H         174.1478  135.0685   57.7395 H        14      M_A    0.0000
    106 C         175.0893  135.2206   60.2859 C.3      15      M_A    0.0000
    107 C         175.8789  134.0668   59.6748 C.3      15      M_A    0.0000
    108 O         176.4262  133.2369   60.6993 O.3      15      M_A    0.0000
    109 H         175.0090  135.1127   61.3728 H        15      M_A    0.0000
    110 H         175.6189  136.1588   60.0842 H        15      M_A    0.0000
    111 H         176.6654  134.4546   59.0115 H        15      M_A    0.0000
    112 H         175.2331  133.4361   59.0511 H        15      M_A    0.0000
    113 C         177.6248  133.7772   61.2172 C.3      16      M_A    0.0000
    114 C         178.7346  132.7336   61.3042 C.3      16      M_A    0.0000
    115 O         179.0744  132.4767   62.6666 O.3      16      M_A    0.0000
    116 H         177.4223  134.2215   62.1976 H        16      M_A    0.0000
    117 H         177.9478  134.5833   60.5485 H        16      M_A    0.0000
    118 H         179.6115  133.0633   60.7286 H        16      M_A    0.0000
    119 H         178.4147  131.7825   60.8604 H        16      M_A    0.0000
    120 C         179.9657  131.3861   62.7806 C.3      17      M_A    0.0000
    121 C         180.1122  130.9128   64.2237 C.3      17      M_A    0.0000
    122 O         181.4173  130.3781   64.4450 O.3      17      M_A    0.0000
    123 H         180.9350  131.6711   62.3577 H        17      M_A    0.0000
    124 H         179.5695  130.5624   62.1758 H        17      M_A    0.0000
    125 H         179.3323  130.1754   64.4623 H        17      M_A    0.0000
    126 H         179.9747  131.7447   64.9256 H        17      M_A    0.0000
    127 C         181.3642  129.1708   65.1774 C.3      18      M_A    0.0000
    128 C         182.7544  128.6080   65.4581 C.3      18      M_A    0.0000
    129 O         182.7092  127.1840   65.5474 O.3      18      M_A    0.0000
    130 H         180.7481  128.4484   64.6315 H        18      M_A    0.0000
    131 H         180.8660  129.3771   66.1316 H        18      M_A    0.0000
    132 H         183.1661  129.0533   66.3752 H        18      M_A    0.0000
    133 H         183.4521  128.8645   64.6511 H        18      M_A    0.0000
    134 C         183.7202  126.6868   66.4003 C.3      19      M_A    0.0000
    135 C         183.5682  125.1909   66.6598 C.3      19      M_A    0.0000
    136 O         184.0487  124.8576   67.9621 O.3      19      M_A    0.0000
    137 H         183.7081  127.2538   67.3372 H        19      M_A    0.0000
    138 H         184.6873  126.8662   65.9168 H        19      M_A    0.0000
    139 H         184.0902  124.6157   65.8816 H        19      M_A    0.0000
    140 H         182.5144  124.8892   66.6113 H        19      M_A    0.0000
    141 C         185.4546  124.7160   67.9740 C.3      20      M_A    0.0000
    142 C         185.9162  123.6523   68.9658 C.3      20      M_A    0.0000
    143 O         186.5038  124.2614   70.1155 O.3      20      M_A    0.0000
    144 H         185.9097  125.6873   68.1957 H        20      M_A    0.0000
    145 H         185.7724  124.4233   66.9668 H        20      M_A    0.0000
    146 H         186.6163  122.9581   68.4793 H        20      M_A    0.0000
    147 H         185.0706  123.0450   69.3119 H        20      M_A    0.0000
    148 C         186.4143  123.4215   71.2484 C.3      21      M_A    0.0000
    149 C         184.9912  123.3417   71.7929 C.3      21      M_A    0.0000
    150 O         185.0054  123.2316   73.2161 O.3      21      M_A    0.0000
    151 H         187.1111  123.7788   72.0141 H        21      M_A    0.0000
    152 H         186.7365  122.4174   70.9497 H        21      M_A    0.0000
    153 H         184.4552  122.4996   71.3320 H        21      M_A    0.0000
    154 H         184.4225  124.2449   71.5390 H        21      M_A    0.0000
    155 C         185.4173  124.4388   73.8242 C.3      22      M_A    0.0000
    156 C         185.7651  124.2500   75.2978 C.3      22      M_A    0.0000
    157 O         184.5831  124.2731   76.0979 O.3      22      M_A    0.0000
    158 H         184.6303  125.1898   73.6969 H        22      M_A    0.0000
    159 H         186.3065  124.7974   73.2932 H        22      M_A    0.0000
    160 H         186.4813  125.0194   75.6203 H        22      M_A    0.0000
    161 H         186.2558  123.2830   75.4646 H        22      M_A    0.0000
    162 C         183.7991  123.1149   75.8959 C.3      23      M_A    0.0000
    163 C         183.5993  122.3246   77.1857 C.3      23      M_A    0.0000
    164 O         183.9550  120.9554   76.9939 O.3      23      M_A    0.0000
    165 H         184.2671  122.4970   75.1222 H        23      M_A    0.0000
    166 H         182.8199  123.4322   75.5193 H        23      M_A    0.0000
    167 H         182.5611  122.4230   77.5342 H        23      M_A    0.0000
    168 H         184.2329  122.7190   77.9899 H        23      M_A    0.0000
    169 C         184.0005  120.2561   78.2210 C.3      24      M_A    0.0000
    170 C         184.2763  118.7683   78.0240 C.3      24      M_A    0.0000
    171 O         183.5994  117.9981   79.0172 O.3      24      M_A    0.0000
    172 H         183.0598  120.4160   78.7586 H        24      M_A    0.0000
    173 H         184.8056  120.6889   78.8258 H        24      M_A    0.0000
    174 H         185.3591  118.5778   78.0395 H        24      M_A    0.0000
    175 H         183.9177  118.4289   77.0443 H        24      M_A    0.0000
    176 C         183.5934  116.6234   78.6904 C.3      25      M_A    0.0000
    177 C         184.3800  115.7902   79.6980 C.3      25      M_A    0.0000
    178 O         185.4243  115.0691   79.0443 O.3      25      M_A    0.0000
    179 H         183.9888  116.4952   77.6771 H        25      M_A    0.0000
    180 H         182.5516  116.2828   78.6852 H        25      M_A    0.0000
    181 H         183.7046  115.1126   80.2398 H        25      M_A    0.0000
    182 H         184.8478  116.4303   80.4565 H        25      M_A    0.0000
    183 C         186.0418  114.1467   79.9188 C.3      26      M_A    0.0000
    184 C         187.4948  113.8786   79.5378 C.3      26      M_A    0.0000
    185 O         187.8102  112.4969   79.7090 O.3      26      M_A    0.0000
    186 H         185.4586  113.2198   79.9303 H        26      M_A    0.0000
    187 H         186.0125  114.5693   80.9297 H        26      M_A    0.0000
    188 H         188.1663  114.5182   80.1285 H        26      M_A    0.0000
    189 H         187.6773  114.1292   78.4854 H        26      M_A    0.0000
    190 C         187.2240  111.9743   80.8838 C.3      27      M_A    0.0000
    191 C         188.2719  111.4945   81.8838 C.3      27      M_A    0.0000
    192 O         188.7870  110.2207   81.4965 O.3      27      M_A    0.0000
    193 H         186.5379  111.1652   80.6114 H        27      M_A    0.0000
    194 H         186.6302  112.7705   81.3471 H        27      M_A    0.0000
    195 H         187.8436  111.4616   82.8960 H        27      M_A    0.0000
    196 H         189.1184  112.1909   81.9300 H        27      M_A    0.0000
    197 C         189.8515  109.8170   82.3337 C.3      28      M_A    0.0000
    198 C         191.1581  109.6539   81.5628 C.3      28      M_A    0.0000
    199 O         191.3888  108.2794   81.2540 O.3      28      M_A    0.0000
    200 H         189.5737  108.8875   82.8419 H        28      M_A    0.0000
    201 H         189.9868  110.5871   83.1018 H        28      M_A    0.0000
    202 H         191.9933  110.0804   82.1369 H        28      M_A    0.0000
    203 H         191.1249  110.2028   80.6133 H        28      M_A    0.0000
    204 C         192.4261  108.1292   80.3063 C.3      29      M_A    0.0000
    205 C         192.2892  106.8380   79.5049 C.3      29      M_A    0.0000
    206 O         192.9310  105.7579   80.1826 O.3      29      M_A    0.0000
    207 H         193.3910  108.1736   80.8225 H        29      M_A    0.0000
    208 H         192.3793  108.9806   79.6176 H        29      M_A    0.0000
    209 H         192.6974  106.9742   78.4930 H        29      M_A    0.0000
    210 H         191.2342  106.5652   79.3773 H        29      M_A    0.0000
    211 C         192.5978  105.7379   81.5557 C.3      30      M_A    0.0000
    212 C         192.2832  104.3289   82.0497 C.3      30      M_A    0.0000
    213 O         193.3482  103.8337   82.8611 O.3      30      M_A    0.0000
    214 H         191.7544  106.4149   81.7286 H        30      M_A    0.0000
    215 H         193.4555  106.1269   82.1163 H        30      M_A    0.0000
    216 H         192.0870  103.6628   81.1972 H        30      M_A    0.0000
    217 H         191.3730  104.3218   82.6622 H        30      M_A    0.0000
    218 C         194.2836  103.1010   82.0961 C.3      31      M_A    0.0000
    219 C         193.6997  101.7906   81.5766 C.3      31      M_A    0.0000
    220 O         194.7117  101.0081   80.9431 O.3      31      M_A    0.0000
    221 H         195.1786  102.9225   82.7015 H        31      M_A    0.0000
    222 H         194.5795  103.7207   81.2419 H        31      M_A    0.0000
    223 H         192.8634  101.9928   80.8920 H        31      M_A    0.0000
    224 H         193.2874  101.1915   82.3981 H        31      M_A    0.0000
    225 C         194.3437   99.6456   80.8726 C.3      32      M_A    0.0000
    226 C         194.1174   99.1856   79.4355 C.3      32      M_A    0.0000
    227 O         193.0269   98.2667   79.3699 O.3      32      M_A    0.0000
    228 H         193.4497   99.4848   81.4845 H        32      M_A    0.0000
    229 H         195.1559   99.0540   81.3105 H        32      M_A    0.0000
    230 H         195.0383   98.7429   79.0293 H        32      M_A    0.0000
    231 H         193.8711  100.0346   78.7857 H        32      M_A    0.0000
    232 C         193.4413   96.9498   79.6713 C.3      33      M_A    0.0000
    233 C         192.4074   95.9111   79.2466 C.3      33      M_A    0.0000
    234 O         192.3852   94.8212   80.1682 O.3      33      M_A    0.0000
    235 H         193.6555   96.8790   80.7431 H        33      M_A    0.0000
    236 H         194.3769   96.7595   79.1331 H        33      M_A    0.0000
    237 H         192.6148   95.5656   78.2236 H        33      M_A    0.0000
    238 H         191.4000   96.3453   79.2268 H        33      M_A    0.0000
    239 C         191.8298   95.2049   81.4096 C.3      34      M_A    0.0000
    240 C         192.2070   94.2403   82.5301 C.3      34      M_A    0.0000
    241 O         191.3699   93.0844   82.4984 O.3      34      M_A    0.0000
    242 H         190.7424   95.2839   81.3055 H        34      M_A    0.0000
    243 H         192.2124   96.2019   81.6563 H        34      M_A    0.0000
    244 H         192.1504   94.7485   83.5035 H        34      M_A    0.0000
    245 H         193.2437   93.8981   82.4210 H        34      M_A    0.0000
    246 C         191.5831   92.3233   81.3271 C.3      35      M_A    0.0000
    247 C         192.0409   90.9021   81.6412 C.3      35      M_A    0.0000
    248 O         193.4459   90.7697   81.4256 O.3      35      M_A    0.0000
    249 H         192.3095   92.8413   80.6917 H        35      M_A    0.0000
    250 H         190.6357   92.2774   80.7779 H        35      M_A    0.0000
    251 H         191.4738   90.1787   81.0379 H        35      M_A    0.0000
    252 H         191.8444   90.6493   82.6906 H        35      M_A    0.0000
    253 C         193.7951   89.4416   81.0925 C.3      36      M_A    0.0000
    254 C         194.4823   88.7214   82.2489 C.3      36      M_A    0.0000
    255 O         195.5277   87.8792   81.7635 O.3      36      M_A    0.0000
    256 H         194.4300   89.4521   80.2002 H        36      M_A    0.0000
    257 H         192.8741   88.9048   80.8377 H        36      M_A    0.0000
    258 H         193.7457   88.1493   82.8312 H        36      M_A    0.0000
    259 H         194.9349   89.4389   82.9448 H        36      M_A    0.0000
    260 C         195.1478   86.5183   81.7856 C.3      37      M_A    0.0000
    261 C         195.8939   85.7313   82.8589 C.3      37      M_A    0.0000
    262 O         195.9224   84.3420   82.5319 O.3      37      M_A    0.0000
    263 H         195.3111   86.0855   80.7928 H        37      M_A    0.0000
    264 H         194.0729   86.4718   81.9946 H        37      M_A    0.0000
    265 H         195.4336   85.9011   83.8429 H        37      M_A    0.0000
    266 H         196.9340   86.0704   82.9427 H        37      M_A    0.0000
    267 C         194.8194   83.9774   81.7272 C.3      38      M_A    0.0000
    268 C         193.9121   82.9657   82.4211 C.3      38      M_A    0.0000
    269 O         193.6869   81.8353   81.5789 O.3      38      M_A    0.0000
    270 H         195.1873   83.5884   80.7718 H        38      M_A    0.0000
    271 H         194.2422   84.8847   81.5155 H        38      M_A    0.0000
    272 H         192.9650   83.4425   82.7122 H        38      M_A    0.0000
    273 H         194.3700   82.5987   83.3481 H        38      M_A    0.0000
    274 C         193.6677   80.6330   82.3211 C.3      39      M_A    0.0000
    275 C         194.3055   79.4763   81.5572 C.3      39      M_A    0.0000
    276 O         193.7557   78.2303   81.9851 O.3      39      M_A    0.0000
    277 H         192.6340   80.4010   82.5990 H        39      M_A    0.0000
    278 H         194.2303   80.7995   83.2469 H        39      M_A    0.0000
    279 H         195.3977   79.4954   81.6821 H        39      M_A    0.0000
    280 H         194.1170   79.5659   80.4801 H        39      M_A    0.0000
    281 C         194.5293   77.1396   81.5284 C.3      40      M_A    0.0000
    282 C         195.1302   76.3395   82.6803 C.3      40      M_A    0.0000
    283 O         196.3310   75.6888   82.2649 O.3      40      M_A    0.0000
    284 H         195.3097   77.5116   80.8561 H        40      M_A    0.0000
    285 H         193.8742   76.4830   80.9444 H        40      M_A    0.0000
    286 H         194.3959   75.6168   83.0641 H        40      M_A    0.0000
    287 H         195.3861   76.9951   83.5221 H        40      M_A    0.0000
    288 C         196.0557   74.4868   81.5747 C.3      41      M_A    0.0000
    289 C         197.3225   73.8363   81.0269 C.3      41      M_A    0.0000
    290 O         197.3038   73.8280   79.5995 O.3      41      M_A    0.0000
    291 H         195.3380   74.6914   80.7731 H        41      M_A    0.0000
    292 H         195.5782   73.7957   82.2787 H        41      M_A    0.0000
    293 H         197.4324   72.8197   81.4313 H        41      M_A    0.0000
    294 H         198.2157   74.3908   81.3406 H        41      M_A    0.0000
    295 C         198.1718   72.8430   79.0766 C.3      42      M_A    0.0000
    296 C         199.5866   72.9704   79.6336 C.3      42      M_A    0.0000
    297 O         200.5219   73.1916   78.5780 O.3      42      M_A    0.0000
    298 H         198.1698   72.9090   77.9834 H        42      M_A    0.0000
    299 H         197.7702   71.8605   79.3501 H        42      M_A    0.0000
    300 H         199.8467   72.0756   80.2172 H        42      M_A    0.0000
    301 H         199.6621   73.8206   80.3229 H        42      M_A    0.0000
    302 C         200.4322   72.1868   77.5884 C.3      43      M_A    0.0000
    303 C         201.7030   71.3464   77.5066 C.3      43      M_A    0.0000
    304 O         202.2628   71.4119   76.1950 O.3      43      M_A    0.0000
    305 H         200.2045   72.6541   76.6244 H        43      M_A    0.0000
    306 H         199.5910   71.5334   77.8469 H        43      M_A    0.0000
    307 H         201.4909   70.3081   77.7994 H        43      M_A    0.0000
    308 H         202.4631   71.7148   78.2069 H        43      M_A    0.0000
    309 C         203.2465   70.4159   76.0022 C.3      44      M_A    0.0000
    310 C         204.3026   70.4312   77.1033 C.3      44      M_A    0.0000
    311 O         205.5204   69.8503   76.6370 O.3      44      M_A    0.0000
    312 H         203.7024   70.5502   75.0154 H        44      M_A    0.0000
    313 H         202.7448   69.4415   76.0056 H        44      M_A    0.0000
    314 H         203.9275   69.9106   77.9962 H        44      M_A    0.0000
    315 H         204.5276   71.4582   77.4173 H        44      M_A    0.0000
    316 C         205.2802   68.6736   75.8924 C.3      45      M_A    0.0000
    317 C         205.4789   68.8908   74.3952 C.3      45      M_A    0.0000
    318 O         204.6557   67.9969   73.6462 O.3      45      M_A    0.0000
    319 H         204.2686   68.3140   76.1088 H        45      M_A    0.0000
    320 H         205.9848   67.9076   76.2360 H        45      M_A    0.0000
    321 H         206.5399   68.7728   74.1321 H        45      M_A    0.0000
    322 H         205.2018   69.9125   74.1066 H        45      M_A    0.0000
    323 C         205.4307   67.1301   72.8431 C.3      46      M_A    0.0000
    324 C         204.5858   66.0344   72.2000 C.3      46      M_A    0.0000
    325 O         205.2213   64.7641   72.3420 O.3      46      M_A    0.0000
    326 H         206.2351   66.7032   73.4515 H        46      M_A    0.0000
    327 H         205.8959   67.7295   72.0521 H        46      M_A    0.0000
    328 H         204.3976   66.2715   71.1429 H        46      M_A    0.0000
    329 H         203.6017   65.9649   72.6800 H        46      M_A    0.0000
    330 C         204.6655   63.8067   71.4636 C.3      47      M_A    0.0000
    331 C         204.2694   62.5240   72.1888 C.3      47      M_A    0.0000
    332 O         204.5461   61.3836   71.3758 O.3      47      M_A    0.0000
    333 H         205.3805   63.6017   70.6598 H        47      M_A    0.0000
    334 H         203.7713   64.2468   71.0076 H        47      M_A    0.0000
    335 H         203.2087   62.5624   72.4759 H        47      M_A    0.0000
    336 H         204.8369   62.4085   73.1207 H        47      M_A    0.0000
    337 C         203.5216   61.1633   70.4278 C.3      48      M_A    0.0000
    338 C         203.4427   59.7018   69.9968 C.3      48      M_A    0.0000
    339 O         202.9554   59.6002   68.6589 O.3      48      M_A    0.0000
    340 H         203.6835   61.8211   69.5672 H        48      M_A    0.0000
    341 H         202.5690   61.4490   70.8886 H        48      M_A    0.0000
    342 H         202.8128   59.1333   70.6961 H        48      M_A    0.0000
    343 H         204.4334   59.2310   70.0222 H        48      M_A    0.0000
    344 C         201.5466   59.4945   68.6282 C.3      49      M_A    0.0000
    345 C         201.0743   58.3855   67.6927 C.3      49      M_A    0.0000
    346 O         200.0347   58.8609   66.8376 O.3      49      M_A    0.0000
    347 H         201.1218   60.4620   68.3404 H        49      M_A    0.0000
    348 H         201.2032   59.2709   69.6448 H        49      M_A    0.0000
    349 H         200.7455   57.5125   68.2746 H        49      M_A    0.0000
    350 H         201.8936   58.0374   67.0514 H        49      M_A    0.0000
    351 C         199.5150   57.8246   66.0297 C.3      50      M_A    0.0000
    352 C         200.5664   57.2519   65.0838 C.3      50      M_A    0.0000
    353 O         199.9430   56.5470   64.0103 O.3      50      M_A    0.0000
    354 H         198.6493   58.2031   65.4759 H        50      M_A    0.0000
    355 H         199.1614   57.0261   66.6921 H        50      M_A    0.0000
    356 H         201.2620   56.6043   65.6368 H        50      M_A    0.0000
    357 H         201.1745   58.0514   64.6425 H        50      M_A    0.0000
    358 C         199.0559   55.5562   64.4883 C.3      51      M_A    0.0000
    359 C         198.9749   54.3567   63.5487 C.3      51      M_A    0.0000
    360 O         197.9110   53.4877   63.9372 O.3      51      M_A    0.0000
    361 H         198.0688   56.0048   64.6427 H        51      M_A    0.0000
    362 H         199.4226   55.2180   65.4642 H        51      M_A    0.0000
    363 H         199.9374   53.8256   63.5273 H        51      M_A    0.0000
    364 H         198.7772   54.6777   62.5184 H        51      M_A    0.0000
    365 C         198.3940   52.2128   64.3089 C.3      52      M_A    0.0000
    366 C         199.0913   51.5033   63.1520 C.3      52      M_A    0.0000
    367 O         198.4794   50.2386   62.8989 O.3      52      M_A    0.0000
    368 H         197.5624   51.6145   64.6960 H        52      M_A    0.0000
    369 H         199.1122   52.3496   65.1255 H        52      M_A    0.0000
    370 H         200.1642   51.3928   63.3659 H        52      M_A    0.0000
    371 H         199.0202   52.0931   62.2296 H        52      M_A    0.0000
    372 C         198.0953   50.1116   61.5449 C.3      53      M_A    0.0000
    373 C         196.6160   49.7678   61.3977 C.3      53      M_A    0.0000
    374 O         196.4221   48.8372   60.3327 O.3      53      M_A    0.0000
    375 H         198.7264   49.3569   61.0637 H        53      M_A    0.0000
    376 H         198.2877   51.0698   61.0488 H        53      M_A    0.0000
    377 H         196.0274   50.6832   61.2409 H        53      M_A    0.0000
    378 H         196.2276   49.3048   62.3133 H        53      M_A    0.0000
    379 C         195.1171   48.9273   59.7983 C.3      54      M_A    0.0000
    380 C         194.2881   47.6810   60.0945 C.3      54      M_A    0.0000
    381 O         193.8756   47.0541   58.8801 O.3      54      M_A    0.0000
    382 H         195.1841   49.1106   58.7206 H        54      M_A    0.0000
    383 H         194.6262   49.7958   60.2523 H        54      M_A    0.0000
    384 H         193.4246   47.9403   60.7239 H        54      M_A    0.0000
    385 H         194.8730   46.9461   60.6614 H        54      M_A    0.0000
    386 C         193.2464   45.8130   59.1266 C.3      55      M_A    0.0000
    387 C         191.7870   45.8107   58.6811 C.3      55      M_A    0.0000
    388 O         190.9829   45.0775   59.6050 O.3      55      M_A    0.0000
    389 H         193.3351   45.5726   60.1914 H        55      M_A    0.0000
    390 H         193.7892   45.0429   58.5666 H        55      M_A    0.0000
    391 H         191.7013   45.4017   57.6641 H        55      M_A    0.0000
    392 H         191.3884   46.8319   58.6370 H        55      M_A    0.0000
    393 C         191.6953   43.9920   60.1628 C.3      56      M_A    0.0000
    394 C         190.9278   42.6788   60.0420 C.3      56      M_A    0.0000
    395 O         190.2179   42.4013   61.2490 O.3      56      M_A    0.0000
    396 H         191.9299   44.2181   61.2084 H        56      M_A    0.0000
    397 H         192.6445   43.8988   59.6228 H        56      M_A    0.0000
    398 H         191.6150   41.8599   59.7850 H        56      M_A    0.0000
    399 H         190.1904   42.7282   59.2311 H        56      M_A    0.0000
    400 C         189.0098   41.7146   60.9923 C.3      57      M_A    0.0000
    401 C         188.0969   42.4920   60.0486 C.3      57      M_A    0.0000
    402 O         186.7366   42.3864   60.4683 O.3      57      M_A    0.0000
    403 H         188.5088   41.5050   61.9434 H        57      M_A    0.0000
    404 H         189.2605   40.7527   60.5306 H        57      M_A    0.0000
    405 H         188.2258   42.1353   59.0165 H        57      M_A    0.0000
    406 H         188.3565   43.5580   60.0408 H        57      M_A    0.0000
    407 C         186.1419   41.1931   60.0000 C.3      58      M_A    0.0000
    408 C         184.9008   41.4636   59.1546 C.3      58      M_A    0.0000
    409 O         183.7213   41.3715   59.9535 O.3      58      M_A    0.0000
    410 H         185.9053   40.5520   60.8558 H        58      M_A    0.0000
    411 H         186.8814   40.6666   59.3858 H        58      M_A    0.0000
    412 H         184.8625   40.7685   58.3035 H        58      M_A    0.0000
    413 H         184.9297   42.4734   58.7267 H        58      M_A    0.0000
    414 C         182.8610   42.4709   59.7344 C.3      59      M_A    0.0000
    415 C         181.4402   42.1932   60.2163 C.3      59      M_A    0.0000
    416 O         180.5153   42.2971   59.1339 O.3      59      M_A    0.0000
    417 H         182.8742   42.7283   58.6699 H        59      M_A    0.0000
    418 H         183.2619   43.3280   60.2876 H        59      M_A    0.0000
    419 H         181.1764   42.8783   61.0349 H        59      M_A    0.0000
    420 H         181.3555   41.1783   60.6245 H        59      M_A    0.0000
    421 C         179.3659   41.5061   59.3580 C.3      60      M_A    0.0000
    422 C         178.1181   42.3561   59.5783 C.3      60      M_A    0.0000
    423 O         177.1524   41.6378   60.3461 O.3      60      M_A    0.0000
    424 H         179.5487   40.8437   60.2109 H        60      M_A    0.0000
    425 H         179.2137   40.8751   58.4749 H        60      M_A    0.0000
    426 H         177.7023   42.6773   58.6125 H        60      M_A    0.0000
    427 H         178.3601   43.2731   60.1299 H        60      M_A    0.0000
    428 C         176.6119   40.5557   59.6155 C.3      61      M_A    0.0000
    429 C         175.8428   41.0222   58.3830 C.3      61      M_A    0.0000
    430 O         174.4455   40.7775   58.5427 O.3      61      M_A    0.0000
    431 H         175.9740   39.9606   60.2776 H        61      M_A    0.0000
    432 H         177.4429   39.9174   59.2942 H        61      M_A    0.0000
    433 H         176.2347   40.5288   57.4819 H        61      M_A    0.0000
    434 H         175.9716   42.1002   58.2247 H        61      M_A    0.0000
    435 C         174.2082   39.6384   59.3446 C.3      62      M_A    0.0000
    436 C         173.1265   38.7373   58.7563 C.3      62      M_A    0.0000
    437 O         171.8303   39.1928   59.1439 O.3      62      M_A    0.0000
    438 H         173.9451   39.9627   60.3571 H        62      M_A    0.0000
    439 H         175.1442   39.0720   59.4108 H        62      M_A    0.0000
    440 H         173.2925   37.6948   59.0637 H        62      M_A    0.0000
    441 H         173.1630   38.7447   57.6598 H        62      M_A    0.0000
    442 C         170.8840   38.1437   59.1170 C.3      63      M_A    0.0000
    443 C         169.8309   38.3481   58.0320 C.3      63      M_A    0.0000
    444 O         168.6523   38.9358   58.5829 O.3      63      M_A    0.0000
    445 H         170.4210   38.0546   60.1055 H        63      M_A    0.0000
    446 H         171.4219   37.2098   58.9175 H        63      M_A    0.0000
    447 H         169.6069   37.3929   57.5357 H        63      M_A    0.0000
    448 H         170.1994   39.0230   57.2493 H        63      M_A    0.0000
    449 C         167.4869   38.4497   57.9486 C.3      64      M_A    0.0000
    450 C         166.8613   39.4887   57.0228 C.3      64      M_A    0.0000
    451 O         165.4390   39.4763   57.1452 O.3      64      M_A    0.0000
    452 H         166.7746   38.1213   58.7129 H        64      M_A    0.0000
    453 H         167.7670   37.5705   57.3570 H        64      M_A    0.0000
    454 H         167.1748   39.3094   55.9842 H        64      M_A    0.0000
    455 H         167.2042   40.4991   57.2780 H        64      M_A    0.0000
    456 C         165.0224   40.0001   58.3897 C.3      65      M_A    0.0000
    457 C         163.5847   39.6132   58.7232 C.3      65      M_A    0.0000
    458 O         162.6658   40.4073   57.9729 O.3      65      M_A    0.0000
    459 H         165.1467   41.0882   58.3791 H        65      M_A    0.0000
    460 H         165.6864   39.5983   59.1637 H        65      M_A    0.0000
    461 H         163.4067   39.7095   59.8039 H        65      M_A    0.0000
    462 H         163.3924   38.5626   58.4717 H        65      M_A    0.0000
    463 C         163.1126   40.6006   56.6463 C.3      66      M_A    0.0000
    464 C         162.0018   40.3677   55.6266 C.3      66      M_A    0.0000
    465 O         162.4511   39.4991   54.5866 O.3      66      M_A    0.0000
    466 H         163.9671   39.9420   56.4575 H        66      M_A    0.0000
    467 H         163.4650   41.6346   56.5567 H        66      M_A    0.0000
    468 H         161.6507   41.3278   55.2218 H        66      M_A    0.0000
    469 H         161.1305   39.8944   56.0964 H        66      M_A    0.0000
    470 C         161.8712   39.8376   53.3433 C.3      67      M_A    0.0000
    471 C         160.3723   40.0977   53.4607 C.3      67      M_A    0.0000
    472 O         159.6413   39.1962   52.6295 O.3      67      M_A    0.0000
    473 H         162.0786   39.0391   52.6230 H        67      M_A    0.0000
    474 H         162.3615   40.7478   52.9794 H        67      M_A    0.0000
    475 H         160.1479   41.1444   53.2096 H        67      M_A    0.0000
    476 H         160.0273   39.9473   54.4913 H        67      M_A    0.0000
    477 C         158.2503   39.2937   52.8588 C.3      68      M_A    0.0000
    478 C         157.4659   38.2360   52.0880 C.3      68      M_A    0.0000
    479 O         156.5305   38.8525   51.2033 O.3      68      M_A    0.0000
    480 H         157.9149   40.3030   52.5976 H        68      M_A    0.0000
    481 H         158.0750   39.1534   53.9316 H        68      M_A    0.0000
    482 H         156.9639   37.5515   52.7869 H        68      M_A    0.0000
    483 H         158.1359   37.6170   51.4783 H        68      M_A    0.0000
    484 C         155.9241   37.9042   50.3489 C.3      69      M_A    0.0000
    485 C         154.6725   38.4571   49.6739 C.3      69      M_A    0.0000
    486 O         153.6062   37.5106   49.7444 O.3      69      M_A    0.0000
    487 H         155.6968   36.9998   50.9232 H        69      M_A    0.0000
    488 H         156.6526   37.6320   49.5766 H        69      M_A    0.0000
    489 H         154.8934   38.7337   48.6329 H        69      M_A    0.0000
    490 H         154.3311   39.3740   50.1704 H        69      M_A    0.0000
    491 C         152.3464   38.1506   49.7571 C.3      70      M_A    0.0000
    492 C         151.2849   37.3437   49.0153 C.3      70      M_A    0.0000
    493 O         150.9617   37.9657   47.7717 O.3      70      M_A    0.0000
    494 H         152.4509   39.1536   49.3297 H        70      M_A    0.0000
    495 H         152.0377   38.2662   50.8024 H        70      M_A    0.0000
    496 H         150.3921   37.2214   49.6452 H        70      M_A    0.0000
    497 H         151.6456   36.3317   48.7924 H        70      M_A    0.0000
    498 C         149.7914   37.4123   47.2053 C.3      71      M_A    0.0000
    499 C         149.9803   37.0517   45.7348 C.3      71      M_A    0.0000
    500 O         148.7466   37.1742   45.0270 O.3      71      M_A    0.0000
    501 H         148.9633   38.1170   47.3363 H        71      M_A    0.0000
    502 H         149.5441   36.5026   47.7645 H        71      M_A    0.0000
    503 H         150.3950   36.0376   45.6429 H        71      M_A    0.0000
    504 H         150.7023   37.7244   45.2553 H        71      M_A    0.0000
    505 C         148.5853   36.1334   44.0849 C.3      72      M_A    0.0000
    506 C         147.4179   36.3926   43.1372 C.3      72      M_A    0.0000
    507 O         146.6764   35.1928   42.9168 O.3      72      M_A    0.0000
    508 H         148.4587   35.1852   44.6181 H        72      M_A    0.0000
    509 H         149.5089   36.0633   43.4988 H        72      M_A    0.0000
    510 H         147.7841   36.8160   42.1909 H        72      M_A    0.0000
    511 H         146.7268   37.1330   43.5590 H        72      M_A    0.0000
    512 C         145.7690   35.3355   41.8429 C.3      73      M_A    0.0000
    513 C         144.8424   36.5333   42.0295 C.3      73      M_A    0.0000
    514 O         143.5281   36.2265   41.5645 O.3      73      M_A    0.0000
    515 H         145.1980   34.4076   41.7318 H        73      M_A    0.0000
    516 H         146.3521   35.4778   40.9258 H        73      M_A    0.0000
    517 H         145.2529   37.4144   41.5155 H        73      M_A    0.0000
    518 H         144.7608   36.8052   43.0893 H        73      M_A    0.0000
    519 C         143.5074   36.0287   40.1655 C.3      74      M_A    0.0000
    520 C         143.0932   37.2901   39.4134 C.3      74      M_A    0.0000
    521 O         142.7482   36.9775   38.0639 O.3      74      M_A    0.0000
    522 H         142.8397   35.1924   39.9326 H        74      M_A    0.0000
    523 H         144.5178   35.7438   39.8505 H        74      M_A    0.0000
    524 H         143.8967   38.0393   39.4574 H        74      M_A    0.0000
    525 H         142.2141   37.7535   39.8783 H        74      M_A    0.0000
    526 C         143.2081   37.9701   37.1693 C.3      75      M_A    0.0000
    527 C         142.3714   38.0263   35.8946 C.3      75      M_A    0.0000
    528 O         143.1689   38.4552   34.7910 O.3      75      M_A    0.0000
    529 H         144.2632   37.7849   36.9417 H        75      M_A    0.0000
    530 H         143.1438   38.9386   37.6785 H        75      M_A    0.0000
    531 H         141.5024   38.6842   36.0396 H        75      M_A    0.0000
    532 H         141.9699   37.0363   35.6446 H        75      M_A    0.0000
    533 C         143.0093   39.8374   34.5439 C.3      76      M_A    0.0000
    534 C         142.5820   40.1181   33.1063 C.3      76      M_A    0.0000
    535 O         143.1108   41.3673   32.6619 O.3      76      M_A    0.0000
    536 H         143.9441   40.3540   34.7865 H        76      M_A    0.0000
    537 H         142.2364   40.2142   35.2236 H        76      M_A    0.0000
    538 H         141.4857   40.0964   33.0252 H        76      M_A    0.0000
    539 H         142.9566   39.3424   32.4268 H        76      M_A    0.0000
    540 C         142.6707   41.6800   31.3559 C.3      77      M_A    0.0000
    541 C         143.5038   42.7885   30.7193 C.3      77      M_A    0.0000
    542 O         142.7662   43.4366   29.6831 O.3      77      M_A    0.0000
    543 H         141.6107   41.9531   31.3918 H        77      M_A    0.0000
    544 H         142.7592   40.7745   30.7447 H        77      M_A    0.0000
    545 H         144.4519   42.3807   30.3402 H        77      M_A    0.0000
    546 H         143.7713   43.5529   31.4595 H        77      M_A    0.0000
    547 C         143.5736   44.3482   28.9660 C.3      78      M_A    0.0000
    548 C         144.1414   45.4425   29.8650 C.3      78      M_A    0.0000
    549 O         144.1640   46.6934   29.1775 O.3      78      M_A    0.0000
    550 H         142.9877   44.7753   28.1451 H        78      M_A    0.0000
    551 H         144.4042   43.7866   28.5232 H        78      M_A    0.0000
    552 H         145.1443   45.1618   30.2174 H        78      M_A    0.0000
    553 H         143.5245   45.5723   30.7630 H        78      M_A    0.0000
    554 C         145.1826   46.7273   28.1986 C.3      79      M_A    0.0000
    555 C         144.8688   47.7134   27.0774 C.3      79      M_A    0.0000
    556 O         145.0433   47.0944   25.8030 O.3      79      M_A    0.0000
    557 H         145.3338   45.7164   27.8052 H        79      M_A    0.0000
    558 H         146.1127   47.0340   28.6906 H        79      M_A    0.0000
    559 H         145.4961   48.6112   27.1751 H        79      M_A    0.0000
    560 H         143.8284   48.0566   27.1362 H        79      M_A    0.0000
    561 C         145.1169   48.0535   24.7678 C.3      80      M_A    0.0000
    562 C         144.3369   47.6224   23.5293 C.3      80      M_A    0.0000
    563 O         144.6280   48.4844   22.4293 O.3      80      M_A    0.0000
    564 H         146.1690   48.2398   24.5273 H        80      M_A    0.0000
    565 H         144.6923   48.9905   25.1458 H        80      M_A    0.0000
    566 H         143.2593   47.6024   23.7473 H        80      M_A    0.0000
    567 H         144.6094   46.6030   23.2288 H        80      M_A    0.0000
    568 C         143.8699   49.6754   22.4907 C.3      81      M_A    0.0000
    569 C         142.3814   49.4204   22.2728 C.3      81      M_A    0.0000
    570 O         142.0009   49.7813   20.9451 O.3      81      M_A    0.0000
    571 H         144.2610   50.3863   21.7551 H        81      M_A    0.0000
    572 H         144.0126   50.1148   23.4846 H        81      M_A    0.0000
    573 H         141.7893   49.9667   23.0210 H        81      M_A    0.0000
    574 H         142.1415   48.3581   22.4060 H        81      M_A    0.0000
    575 C         140.6422   49.4823   20.6971 C.3      82      M_A    0.0000
    576 C         140.0553   50.3538   19.5907 C.3      82      M_A    0.0000
    577 O         138.6422   50.4797   19.7492 O.3      82      M_A    0.0000
    578 H         140.0765   49.5917   21.6285 H        82      M_A    0.0000
    579 H         140.5786   48.4315   20.3922 H        82      M_A    0.0000
    580 H         140.3117   49.9395   18.6050 H        82      M_A    0.0000
    581 H         140.4805   51.3648   19.6200 H        82      M_A    0.0000
    582 C         138.0804   49.3165   20.3222 C.3      83      M_A    0.0000
    583 C         136.9895   48.7127   19.4427 C.3      83      M_A    0.0000
    584 O         135.7151   48.8285   20.0756 O.3      83      M_A    0.0000
    585 H         137.6958   49.5590   21.3186 H        83      M_A    0.0000
    586 H         138.8831   48.5807   20.4468 H        83      M_A    0.0000
    587 H         137.2265   47.6646   19.2098 H        83      M_A    0.0000
    588 H         136.9269   49.2356   18.4802 H        83      M_A    0.0000
    589 C         134.7605   47.9766   19.4758 C.3      84      M_A    0.0000
    590 C         134.7717   48.0834   17.9538 C.3      84      M_A    0.0000
    591 O         133.4571   48.3411   17.4605 O.3      84      M_A    0.0000
    592 H         133.7698   48.2086   19.8811 H        84      M_A    0.0000
    593 H         135.0021   46.9462   19.7607 H        84      M_A    0.0000
    594 H         135.1922   47.1685   17.5122 H        84      M_A    0.0000
    595 H         135.4144   48.9087   17.6228 H        84      M_A    0.0000
    596 C         133.3483   48.0237   16.0878 C.3      85      M_A    0.0000
    597 C         134.4708   48.6473   15.2636 C.3      85      M_A    0.0000
    598 O         133.9548   49.6614   14.4015 O.3      85      M_A    0.0000
    599 H         132.3661   48.3435   15.7238 H        85      M_A    0.0000
    600 H         133.3995   46.9333   15.9889 H        85      M_A    0.0000
    601 H         135.0005   47.8699   14.6943 H        85      M_A    0.0000
    602 H         135.2197   49.1179   15.9128 H        85      M_A    0.0000
    603 C         134.6500   49.6978   13.1718 C.3      86      M_A    0.0000
    604 C         135.3115   51.0506   12.9261 C.3      86      M_A    0.0000
    605 O         134.3918   51.9533   12.3121 O.3      86      M_A    0.0000
    606 H         133.9577   49.4434   12.3622 H        86      M_A    0.0000
    607 H         135.4256   48.9238   13.2001 H        86      M_A    0.0000
    608 H         136.2169   50.9250   12.3149 H        86      M_A    0.0000
    609 H         135.6376   51.5054   13.8699 H        86      M_A    0.0000
    610 C         135.0639   52.9597   11.5825 C.3      87      M_A    0.0000
    611 C         135.1614   54.2669   12.3634 C.3      87      M_A    0.0000
    612 O         134.4544   55.3072   11.6882 O.3      87      M_A    0.0000
    613 H         134.5532   53.1084   10.6250 H        87      M_A    0.0000
    614 H         136.0762   52.5998   11.3658 H        87      M_A    0.0000
    615 H         136.2155   54.5370   12.5212 H        87      M_A    0.0000
    616 H         134.7175   54.1621   13.3613 H        87      M_A    0.0000
    617 C         134.9480   56.5828   12.0433 C.3      88      M_A    0.0000
    618 C         133.8290   57.6085   12.1986 C.3      88      M_A    0.0000
    619 O         134.2778   58.9032   11.7982 O.3      88      M_A    0.0000
    620 H         135.6782   56.9049   11.2933 H        88      M_A    0.0000
    621 H         135.4754   56.4860   12.9992 H        88      M_A    0.0000
    622 H         133.4618   57.6155   13.2350 H        88      M_A    0.0000
    623 H         132.9689   57.3496   11.5686 H        88      M_A    0.0000
    624 C         133.2243   59.8447   11.8175 C.3      89      M_A    0.0000
    625 C         133.6845   61.2112   12.3165 C.3      89      M_A    0.0000
    626 O         132.6311   61.8672   13.0220 O.3      89      M_A    0.0000
    627 H         132.4070   59.4538   12.4329 H        89      M_A    0.0000
    628 H         132.8473   59.9496   10.7937 H        89      M_A    0.0000
    629 H         134.0429   61.8215   11.4750 H        89      M_A    0.0000
    630 H         134.5309   61.1121   13.0076 H        89      M_A    0.0000
    631 C         132.3682   63.1477   12.4854 C.3      90      M_A    0.0000
    632 C         131.1839   63.8246   13.1689 C.3      90      M_A    0.0000
    633 O         130.5470   64.7393   12.2769 O.3      90      M_A    0.0000
    634 H         132.2025   63.0560   11.4067 H        90      M_A    0.0000
    635 H         133.2622   63.7646   12.6321 H        90      M_A    0.0000
    636 H         131.5136   64.3277   14.0893 H        90      M_A    0.0000
    637 H         130.4321   63.0860   13.4740 H        90      M_A    0.0000
    638 C         131.2265   65.9776   12.2339 C.3      91      M_A    0.0000
    639 C         130.2654   67.1617   12.2822 C.3      91      M_A    0.0000
    640 O         130.6963   68.1925   11.3935 O.3      91      M_A    0.0000
    641 H         131.8508   66.0116   11.3347 H        91      M_A    0.0000
    642 H         131.8932   66.0265   13.1024 H        91      M_A    0.0000
    643 H         130.1739   67.5345   13.3125 H        91      M_A    0.0000
    644 H         129.2566   66.8615   11.9725 H        91      M_A    0.0000
    645 C         129.7297   69.2174   11.2829 C.3      92      M_A    0.0000
    646 C         130.2915   70.5810   11.6743 C.3      92      M_A    0.0000
    647 O         129.2622   71.4101   12.2139 O.3      92      M_A    0.0000
    648 H         128.8608   68.9569   11.8965 H        92      M_A    0.0000
    649 H         129.3983   69.2569   10.2389 H        92      M_A    0.0000
    650 H         130.7741   71.0556   10.8078 H        92      M_A    0.0000
    651 H         131.0683   70.4798   12.4424 H        92      M_A    0.0000
    652 C         128.1027   71.3866   11.4066 C.3      93      M_A    0.0000
    653 C         127.6164   72.7905   11.0591 C.3      93      M_A    0.0000
    654 O         126.4273   73.1022   11.7847 O.3      93      M_A    0.0000
    655 H         127.3224   70.8135   11.9186 H        93      M_A    0.0000
    656 H         128.3484   70.8568   10.4791 H        93      M_A    0.0000
    657 H         127.4581   72.8797    9.9747 H        93      M_A    0.0000
    658 H         128.3695   73.5434   11.3234 H        93      M_A    0.0000
    659 C         125.8531   74.3146   11.3405 C.3      94      M_A    0.0000
    660 C         126.4498   75.5264   12.0500 C.3      94      M_A    0.0000
    661 O         125.4190   76.4276   12.4540 O.3      94      M_A    0.0000
    662 H         124.7679   74.2688   11.4813 H        94      M_A    0.0000
    663 H         126.0442   74.4038   10.2649 H        94      M_A    0.0000
    664 H         127.1835   76.0239   11.3995 H        94      M_A    0.0000
    665 H         126.9942   75.2238   12.9532 H        94      M_A    0.0000
    666 C         125.0084   77.2562   11.3855 C.3      95      M_A    0.0000
    667 C         124.2421   78.4827   11.8719 C.3      95      M_A    0.0000
    668 O         122.8417   78.2103   11.9226 O.3      95      M_A    0.0000
    669 H         124.4067   76.6658   10.6863 H        95      M_A    0.0000
    670 H         125.9064   77.5879   10.8519 H        95      M_A    0.0000
    671 H         124.4583   79.3460   11.2262 H        95      M_A    0.0000
    672 H         124.5582   78.7676   12.8832 H        95      M_A    0.0000
    673 C         122.4762   77.6069   13.1470 C.3      96      M_A    0.0000
    674 C         121.0668   77.9978   13.5816 C.3      96      M_A    0.0000
    675 O         121.1054   79.1408   14.4359 O.3      96      M_A    0.0000
    676 H         123.2139   77.8739   13.9113 H        96      M_A    0.0000
    677 H         122.5171   76.5199   13.0125 H        96      M_A    0.0000
    678 H         120.5717   77.1479   14.0730 H        96      M_A    0.0000
    679 H         120.4462   78.2565   12.7146 H        96      M_A    0.0000
    680 C         119.9364   79.2373   15.2240 C.3      97      M_A    0.0000
    681 C         118.6802   79.3891   14.3714 C.3      97      M_A    0.0000
    682 O         118.1001   80.6797   14.5601 O.3      97      M_A    0.0000
    683 H         120.0440   80.0744   15.9219 H        97      M_A    0.0000
    684 H         119.8534   78.3196   15.8174 H        97      M_A    0.0000
    685 H         117.9627   78.5899   14.6070 H        97      M_A    0.0000
    686 H         118.9151   79.2874   13.3045 H        97      M_A    0.0000
    687 C         116.7820   80.7335   14.0537 C.3      98      M_A    0.0000
    688 C         116.0569   82.0085   14.4742 C.3      98      M_A    0.0000
    689 O         114.9979   81.7057   15.3823 O.3      98      M_A    0.0000
    690 H         116.2366   79.8421   14.3815 H        98      M_A    0.0000
    691 H         116.8398   80.7029   12.9596 H        98      M_A    0.0000
    692 H         115.6837   82.5425   13.5885 H        98      M_A    0.0000
    693 H         116.7403   82.6985   14.9847 H        98      M_A    0.0000
    694 C         114.0961   82.7867   15.5041 C.3      99      M_A    0.0000
    695 C         113.3468   82.7624   16.8331 C.3      99      M_A    0.0000
    696 O         111.9366   82.7901   16.6132 O.3      99      M_A    0.0000
    697 H         113.4009   82.7692   14.6580 H        99      M_A    0.0000
    698 H         114.6734   83.7161   15.4396 H        99      M_A    0.0000
    699 H         113.6694   83.6016   17.4660 H        99      M_A    0.0000
    700 H         113.5738   81.8478   17.3951 H        99      M_A    0.0000
    701 C         111.2227   82.4952   17.7966 C.3     100      M_A    0.0000
    702 C         110.3804   83.6767   18.2684 C.3     100      M_A    0.0000
    703 O         110.5596   83.8920   19.6681 O.3     100      M_A    0.0000
    704 H         111.9297   82.1795   18.5712 H       100      M_A    0.0000
    705 H         110.5596   81.6479   17.5879 H       100      M_A    0.0000
    706 H         109.3218   83.5106   18.0217 H       100      M_A    0.0000
    707 H         110.6754   84.5997   17.7536 H       100      M_A    0.0000
    708 C         110.1764   85.1992   20.0437 C.3     101      M_A    0.0000
    709 C         109.1890   85.1962   21.2069 C.3     101      M_A    0.0000
    710 O         108.1107   86.0960   20.9504 O.3     101      M_A    0.0000
    711 H         109.7585   85.7135   19.1717 H       101      M_A    0.0000
    712 H         111.0796   85.7412   20.3467 H       101      M_A    0.0000
    713 H         109.7058   85.4483   22.1441 H       101      M_A    0.0000
    714 H         108.7567   84.1984   21.3523 H       101      M_A    0.0000
    715 C         106.9618   85.7529   21.6982 C.3     102      M_A    0.0000
    716 C         105.9057   86.8536   21.6655 C.3     102      M_A    0.0000
    717 O         106.1671   87.8281   22.6754 O.3     102      M_A    0.0000
    718 H         107.2604   85.5219   22.7263 H       102      M_A    0.0000
    719 H         106.5369   84.8408   21.2637 H       102      M_A    0.0000
    720 H         104.9018   86.4198   21.7788 H       102      M_A    0.0000
    721 H         105.9097   87.3729   20.6991 H       102      M_A    0.0000
    722 C         106.6719   89.0256   22.1204 C.3     103      M_A    0.0000
    723 C         106.2951   90.2477   22.9526 C.3     103      M_A    0.0000
    724 O         106.1021   91.3854   22.1121 O.3     103      M_A    0.0000
    725 H         106.3113   89.1220   21.0907 H       103      M_A    0.0000
    726 H         107.7644   88.9453   22.0828 H       103      M_A    0.0000
    727 H         107.0640   90.4395   23.7148 H       103      M_A    0.0000
    728 H         105.3575   90.0783   23.4966 H       103      M_A    0.0000
    729 C         106.6487   92.5536   22.6894 C.3     104      M_A    0.0000
    730 C         105.6332   93.6905   22.7557 C.3     104      M_A    0.0000
    731 O         106.0154   94.7544   21.8839 O.3     104      M_A    0.0000
    732 H         107.5376   92.8501   22.1225 H       104      M_A    0.0000
    733 H         106.9718   92.3071   23.7073 H       104      M_A    0.0000
    734 H         105.5242   94.0421   23.7917 H       104      M_A    0.0000
    735 H         104.6396   93.3483   22.4403 H       104      M_A    0.0000
    736 C         104.8900   95.4704   21.4173 C.3     105      M_A    0.0000
    737 C         104.9990   96.9643   21.7079 C.3     105      M_A    0.0000
    738 O         103.7013   97.5454   21.8349 O.3     105      M_A    0.0000
    739 H         103.9854   95.0455   21.8651 H       105      M_A    0.0000
    740 H         104.8233   95.3241   20.3331 H       105      M_A    0.0000
    741 H         105.5849   97.4621   20.9219 H       105      M_A    0.0000
    742 H         105.5326   97.1431   22.6498 H       105      M_A    0.0000
    743 C         103.3505   98.2843   20.6826 C.3     106      M_A    0.0000
    744 C         103.3168   99.7858   20.9515 C.3     106      M_A    0.0000
    745 O         102.0800  100.3456   20.5101 O.3     106      M_A    0.0000
    746 H         102.3844   97.9276   20.3098 H       106      M_A    0.0000
    747 H         104.1001   98.0793   19.9097 H       106      M_A    0.0000
    748 H         104.1733  100.2773   20.4681 H       106      M_A    0.0000
    749 H         103.4073   99.9945   22.0248 H       106      M_A    0.0000
    750 C         102.0314  101.7390   20.7406 C.3     107      M_A    0.0000
    751 C         101.6742  102.5177   19.4781 C.3     107      M_A    0.0000
    752 O         102.2650  103.8169   19.5075 O.3     107      M_A    0.0000
    753 H         102.9932  102.0674   21.1488 H       107      M_A    0.0000
    754 H         101.2662  101.9281   21.5022 H       107      M_A    0.0000
    755 H         100.5821  102.5775   19.3653 H       107      M_A    0.0000
    756 H         102.0489  102.0067   18.5824 H       107      M_A    0.0000
    757 C         101.2863  104.8272   19.6431 C.3     108      M_A    0.0000
    758 C         101.8516  106.2160   19.3605 C.3     108      M_A    0.0000
    759 O         101.3211  107.1692   20.2812 O.3     108      M_A    0.0000
    760 H         100.8540  104.7734   20.6480 H       108      M_A    0.0000
    761 H         100.4844  104.6181   18.9258 H       108      M_A    0.0000
    762 H         101.6437  106.5059   18.3205 H       108      M_A    0.0000
    763 H         102.9432  106.2253   19.4705 H       108      M_A    0.0000
    764 C         100.0353  107.6058   19.8902 C.3     109      M_A    0.0000
    765 C          99.8060  109.0790   20.2146 C.3     109      M_A    0.0000
    766 O          98.5728  109.2516   20.9127 O.3     109      M_A    0.0000
    767 H          99.2816  106.9732   20.3709 H       109      M_A    0.0000
    768 H          99.9459  107.4632   18.8072 H       109      M_A    0.0000
    769 H          99.8314  109.6789   19.2935 H       109      M_A    0.0000
    770 H         100.6049  109.4683   20.8580 H       109      M_A    0.0000
    771 C          98.3066  110.6168   21.1626 C.3     110      M_A    0.0000
    772 C          97.0862  110.8092   22.0580 C.3     110      M_A    0.0000
    773 O          96.4613  112.0643   21.7895 O.3     110      M_A    0.0000
    774 H          98.1818  111.1372   20.2071 H       110      M_A    0.0000
    775 H          99.1834  111.0453   21.6615 H       110      M_A    0.0000
    776 H          97.3742  110.7241   23.1157 H       110      M_A    0.0000
    777 H          96.3397  110.0255   21.8780 H       110      M_A    0.0000
    778 C          96.7408  113.0085   22.8031 C.3     111      M_A    0.0000
    779 C          95.4724  113.6588   23.3474 C.3     111      M_A    0.0000
    780 O          95.6531  115.0679   23.4881 O.3     111      M_A    0.0000
    781 H          97.4331  113.7605   22.4099 H       111      M_A    0.0000
    782 H          97.2496  112.4848   23.6205 H       111      M_A    0.0000
    783 H          95.1880  113.1948   24.3028 H       111      M_A    0.0000
    784 H          94.6273  113.5025   22.6654 H       111      M_A    0.0000
    785 C          94.6561  115.6376   24.3117 C.3     112      M_A    0.0000
    786 C          94.4147  117.1088   23.9870 C.3     112      M_A    0.0000
    787 O          94.5604  117.9104   25.1591 O.3     112      M_A    0.0000
    788 H          94.9411  115.5059   25.3609 H       112      M_A    0.0000
    789 H          93.7259  115.0813   24.1486 H       112      M_A    0.0000
    790 H          93.4214  117.2395   23.5340 H       112      M_A    0.0000
    791 H          95.1403  117.4719   23.2484 H       112      M_A    0.0000
    792 C          93.3604  118.5859   25.4762 C.3     113      M_A    0.0000
    793 C          93.6040  119.8040   26.3621 C.3     113      M_A    0.0000
    794 O          92.9119  119.6668   27.6031 O.3     113      M_A    0.0000
    795 H          92.6695  117.8823   25.9528 H       113      M_A    0.0000
    796 H          92.9015  118.9164   24.5373 H       113      M_A    0.0000
    797 H          93.3039  120.7219   25.8363 H       113      M_A    0.0000
    798 H          94.6711  119.9154   26.5916 H       113      M_A    0.0000
    799 C          93.2302  120.7184   28.4918 C.3     114      M_A    0.0000
    800 C          93.2829  120.2481   29.9424 C.3     114      M_A    0.0000
    801 O          92.8554  121.2883   30.8216 O.3     114      M_A    0.0000
    802 H          92.5021  121.5266   28.3645 H       114      M_A    0.0000
    803 H          94.2140  121.1113   28.2105 H       114      M_A    0.0000
    804 H          94.2967  119.9040   30.1931 H       114      M_A    0.0000
    805 H          92.6182  119.3898   30.1012 H       114      M_A    0.0000
    806 C          93.2787  121.0503   32.1487 C.3     115      M_A    0.0000
    807 C          92.7104  122.0757   33.1252 C.3     115      M_A    0.0000
    808 O          93.5536  122.1969   34.2707 O.3     115      M_A    0.0000
    809 H          94.3735  121.0407   32.1783 H       115      M_A    0.0000
    810 H          92.9306  120.0526   32.4397 H       115      M_A    0.0000
    811 H          91.6850  121.8001   33.4109 H       115      M_A    0.0000
    812 H          92.6445  123.0669   32.6594 H       115      M_A    0.0000
    813 C          93.3005  123.3957   34.9747 C.3     116      M_A    0.0000
    814 C          93.6219  123.2676   36.4608 C.3     116      M_A    0.0000
    815 O          92.7180  124.0531   37.2379 O.3     116      M_A    0.0000
    816 H          92.2563  123.6875   34.8198 H       116      M_A    0.0000
    817 H          93.9316  124.1804   34.5419 H       116      M_A    0.0000
    818 H          94.6660  123.5557   36.6496 H       116      M_A    0.0000
    819 H          93.5241  122.2272   36.7953 H       116      M_A    0.0000
    820 C          93.4012  125.0349   37.9903 C.3     117      M_A    0.0000
    821 C          93.2505  124.8147   39.4926 C.3     117      M_A    0.0000
    822 O          93.4107  126.0458   40.1974 O.3     117      M_A    0.0000
    823 H          93.0385  126.0260   37.6977 H       117      M_A    0.0000
    824 H          94.4642  124.9805   37.7289 H       117      M_A    0.0000
    825 H          93.9698  124.0589   39.8395 H       117      M_A    0.0000
    826 H          92.2537  124.4251   39.7343 H       117      M_A    0.0000
    827 C          92.7897  126.0000   41.4660 C.3     118      M_A    0.0000
    828 C          93.7425  126.4057   42.5866 C.3     118      M_A    0.0000
    829 O          93.4670  125.6602   43.7723 O.3     118      M_A    0.0000
    830 H          92.3898  124.9940   41.6320 H       118      M_A    0.0000
    831 H          91.9426  126.6953   41.4518 H       118      M_A    0.0000
    832 H          93.6742  127.4878   42.7697 H       118      M_A    0.0000
    833 H          94.7846  126.2057   42.3075 H       118      M_A    0.0000
    834 C          93.7501  126.4130   44.9342 C.3     119      M_A    0.0000
    835 C          95.0694  127.1710   44.8198 C.3     119      M_A    0.0000
    836 O          95.4959  127.6296   46.1027 O.3     119      M_A    0.0000
    837 H          93.7523  125.7443   45.8016 H       119      M_A    0.0000
    838 H          92.9374  127.1349   45.0743 H       119      M_A    0.0000
    839 H          94.9676  128.0050   44.1106 H       119      M_A    0.0000
    840 H          95.8610  126.5235   44.4225 H       119      M_A    0.0000
    841 C          94.8404  128.8270   46.4681 C.3     120      M_A    0.0000
    842 C          94.6445  128.9366   47.9774 C.3     120      M_A    0.0000
    843 O          93.7216  129.9806   48.2877 O.3     120      M_A    0.0000
    844 H          93.8828  128.8857   45.9399 H       120      M_A    0.0000
    845 H          95.4581  129.6664   46.1289 H       120      M_A    0.0000
    846 H          95.6118  129.0970   48.4749 H       120      M_A    0.0000
    847 H          94.2370  128.0049   48.3891 H       120      M_A    0.0000
    848 C          94.3501  131.2463   48.2779 C.3     121      M_A    0.0000
    849 C          93.9125  132.1136   49.4545 C.3     121      M_A    0.0000
    850 O          93.5235  133.4107   49.0027 O.3     121      M_A    0.0000
    851 H          94.1423  131.7411   47.3232 H       121      M_A    0.0000
    852 H          95.4325  131.0855   48.3392 H       121      M_A    0.0000
    853 H          94.7176  132.1749   50.2008 H       121      M_A    0.0000
    854 H          93.0494  131.6721   49.9681 H       121      M_A    0.0000
    855 C          92.7410  134.0819   49.9692 C.3     122      M_A    0.0000
    856 C          93.4505  135.3110   50.5296 C.3     122      M_A    0.0000
    857 O          93.7239  135.1403   51.9203 O.3     122      M_A    0.0000
    858 H          92.4782  133.3790   50.7670 H       122      M_A    0.0000
    859 H          91.8093  134.3994   49.4870 H       122      M_A    0.0000
    860 H          92.8479  136.2126   50.3482 H       122      M_A    0.0000
    861 H          94.4102  135.4749   50.0238 H       122      M_A    0.0000
    862 C          92.6613  135.6198   52.7189 C.3     123      M_A    0.0000
    863 C          93.1508  136.1730   54.0540 C.3     123      M_A    0.0000
    864 O          93.3202  135.1182   55.0009 O.3     123      M_A    0.0000
    865 H          91.9343  134.8142   52.8675 H       123      M_A    0.0000
    866 H          92.1590  136.4216   52.1656 H       123      M_A    0.0000
    867 H          92.4534  136.9369   54.4269 H       123      M_A    0.0000
    868 H          94.1216  136.6714   53.9402 H       123      M_A    0.0000
    869 C          94.6848  134.9065   55.3007 C.3     124      M_A    0.0000
    870 C          95.0340  135.3372   56.7222 C.3     124      M_A    0.0000
    871 O          96.2062  136.1519   56.7247 O.3     124      M_A    0.0000
    872 H          95.2988  135.4368   54.5649 H       124      M_A    0.0000
    873 H          94.8911  133.8353   55.1940 H       124      M_A    0.0000
    874 H          95.1589  134.4548   57.3662 H       124      M_A    0.0000
    875 H          94.2221  135.9285   57.1638 H       124      M_A    0.0000
    876 C          97.1697  135.6745   55.8078 C.3     125      M_A    0.0000
    877 C          98.5946  135.9709   56.2660 C.3     125      M_A    0.0000
    878 O          98.9577  137.3116   55.9364 O.3     125      M_A    0.0000
    879 H          96.9724  136.1107   54.8227 H       125      M_A    0.0000
    880 H          97.0437  134.5892   55.7210 H       125      M_A    0.0000
    881 H          99.2939  135.2469   55.8234 H       125      M_A    0.0000
    882 H          98.6875  135.8634   57.3539 H       125      M_A    0.0000
    883 C         100.3569  137.4990   56.0000 C.3     126      M_A    0.0000
    884 C         100.7380  138.6833   56.8833 C.3     126      M_A    0.0000
    885 O         100.5708  139.9109   56.1741 O.3     126      M_A    0.0000
    886 H         100.7475  137.6217   54.9841 H       126      M_A    0.0000
    887 H         100.8003  136.5879   56.4178 H       126      M_A    0.0000
    888 H         101.7692  138.5689   57.2472 H       126      M_A    0.0000
    889 H         100.1000  138.7294   57.7748 H       126      M_A    0.0000
    890 C          99.2043  140.2301   56.0076 C.3     127      M_A    0.0000
    891 C          98.9625  141.7366   56.0076 C.3     127      M_A    0.0000
    892 O          98.2945  142.1363   57.2042 O.3     127      M_A    0.0000
    893 H          98.6236  139.7365   56.7942 H       127      M_A    0.0000
    894 H          98.8769  139.8184   55.0461 H       127      M_A    0.0000
    895 H          98.3920  142.0294   55.1144 H       127      M_A    0.0000
    896 H          99.9108  142.2864   55.9614 H       127      M_A    0.0000
    897 C          98.4293  143.5242   57.4329 C.3     128      M_A    0.0000
    898 C          97.9583  143.9247   58.8279 C.3     128      M_A    0.0000
    899 O          96.6236  144.4288   58.7799 O.3     128      M_A    0.0000
    900 H          97.8792  144.0691   56.6583 H       128      M_A    0.0000
    901 H          99.4897  143.7814   57.3293 H       128      M_A    0.0000
    902 H          98.6484  144.6609   59.2646 H       128      M_A    0.0000
    903 H          97.9594  143.0617   59.5054 H       128      M_A    0.0000
    904 C          95.9176  144.1375   59.9688 C.3     129      M_A    0.0000
    905 C          95.7006  145.3804   60.8268 C.3     129      M_A    0.0000
    906 O          95.4016  145.0130   62.1735 O.3     129      M_A    0.0000
    907 H          96.4573  143.3631   60.5242 H       129      M_A    0.0000
    908 H          94.9415  143.7252   59.6887 H       129      M_A    0.0000
    909 H          94.9040  146.0043   60.3964 H       129      M_A    0.0000
    910 H          96.6026  146.0045   60.8491 H       129      M_A    0.0000
    911 C          94.4071  144.0106   62.2275 C.3     130      M_A    0.0000
    912 C          93.0404  144.5772   62.6006 C.3     130      M_A    0.0000
    913 O          92.4166  143.7653   63.5954 O.3     130      M_A    0.0000
    914 H          94.7198  143.2347   62.9345 H       130      M_A    0.0000
    915 H          94.3405  143.5481   61.2361 H       130      M_A    0.0000
    916 H          92.4095  144.6673   61.7047 H       130      M_A    0.0000
    917 H          93.1346  145.5891   63.0141 H       130      M_A    0.0000
    918 C          91.0209  143.6792   63.3921 C.3     131      M_A    0.0000
    919 C          90.2331  144.1383   64.6155 C.3     131      M_A    0.0000
    920 O          89.2458  143.1692   64.9676 O.3     131      M_A    0.0000
    921 H          90.7624  142.6507   63.1186 H       131      M_A    0.0000
    922 H          90.7637  144.3226   62.5429 H       131      M_A    0.0000
    923 H          89.7788  145.1217   64.4273 H       131      M_A    0.0000
    924 H          90.8932  144.2647   65.4827 H       131      M_A    0.0000
    925 C          88.9572  143.2037   66.3505 C.3     132      M_A    0.0000
    926 C          87.4606  143.0963   66.6275 C.3     132      M_A    0.0000
    927 O          87.0007  144.2424   67.3438 O.3     132      M_A    0.0000
    928 H          89.3738  144.1212   66.7797 H       132      M_A    0.0000
    929 H          89.4668  142.3559   66.8224 H       132      M_A    0.0000
    930 H          87.2416  142.1683   67.1749 H       132      M_A    0.0000
    931 H          86.8908  143.0436   65.6914 H       132      M_A    0.0000
    932 C          85.6330  144.4944   67.0933 C.3     133      M_A    0.0000
    933 C          84.7934  144.4215   68.3653 C.3     133      M_A    0.0000
    934 O          83.5600  143.7485   68.1130 O.3     133      M_A    0.0000
    935 H          85.2713  143.7865   66.3399 H       133      M_A    0.0000
    936 H          85.5480  145.5016   66.6696 H       133      M_A    0.0000
    937 H          84.6234  145.4311   68.7661 H       133      M_A    0.0000
    938 H          85.3180  143.8627   69.1504 H       133      M_A    0.0000
    939 C          82.8487  143.5064   69.3098 C.3     134      M_A    0.0000
    940 C          81.6076  142.6500   69.0768 C.3     134      M_A    0.0000
    941 O          80.4831  143.2016   69.7618 O.3     134      M_A    0.0000
    942 H          82.5868  144.4651   69.7700 H       134      M_A    0.0000
    943 H          83.5185  142.9799   69.9993 H       134      M_A    0.0000
    944 H          81.7976  141.6133   69.3902 H       134      M_A    0.0000
    945 H          81.3543  142.6079   68.0101 H       134      M_A    0.0000
    946 C          79.2840  142.9838   69.0465 C.3     135      M_A    0.0000
    947 C          78.0542  143.0809   69.9444 C.3     135      M_A    0.0000
    948 O          76.8687  143.2003   69.1582 O.3     135      M_A    0.0000
    949 H          79.3356  142.0084   68.5510 H       135      M_A    0.0000
    950 H          79.2139  143.7492   68.2652 H       135      M_A    0.0000
    951 H          78.1586  143.9252   70.6411 H       135      M_A    0.0000
    952 H          77.9484  142.1816   70.5639 H       135      M_A    0.0000
    953 C          75.7899  143.7008   69.9216 C.3     136      M_A    0.0000
    954 C          75.7494  143.0977   71.3225 C.3     136      M_A    0.0000
    955 O          74.4809  143.3347   71.9330 O.3     136      M_A    0.0000
    956 H          74.8544  143.5141   69.3836 H       136      M_A    0.0000
    957 H          75.9124  144.7867   70.0065 H       136      M_A    0.0000
    958 H          76.5691  143.5021   71.9337 H       136      M_A    0.0000
    959 H          75.8989  142.0113   71.2867 H       136      M_A    0.0000
    960 C          74.3614  144.6716   72.3749 C.3     137      M_A    0.0000
    961 C          73.0480  144.9175   73.1115 C.3     137      M_A    0.0000
    962 O          72.1555  145.6825   72.3015 O.3     137      M_A    0.0000
    963 H          74.4642  145.3426   71.5154 H       137      M_A    0.0000
    964 H          75.1943  144.8768   73.0571 H       137      M_A    0.0000
    965 H          73.2397  145.4139   74.0737 H       137      M_A    0.0000
    966 H          72.5471  143.9704   73.3478 H       137      M_A    0.0000
    967 C          70.8412  145.1657   72.3500 C.3     138      M_A    0.0000
    968 C          69.9536  145.9436   73.3171 C.3     138      M_A    0.0000
    969 O          68.9903  145.0786   73.9184 O.3     138      M_A    0.0000
    970 H          70.8840  144.1049   72.6190 H       138      M_A    0.0000
    971 H          70.4143  145.2352   71.3429 H       138      M_A    0.0000
    972 H          69.4685  146.7818   72.7964 H       138      M_A    0.0000
    973 H          70.5481  146.3861   74.1261 H       138      M_A    0.0000
    974 C          68.2287  145.7544   74.8983 C.3     139      M_A    0.0000
    975 C          66.9096  145.0453   75.1901 C.3     139      M_A    0.0000
    976 O          65.9250  145.9809   75.6297 O.3     139      M_A    0.0000
    977 H          68.0592  146.7856   74.5707 H       139      M_A    0.0000
    978 H          68.8220  145.7924   75.8191 H       139      M_A    0.0000
    979 H          67.0630  144.2482   75.9317 H       139      M_A    0.0000
    980 H          66.5189  144.5565   74.2888 H       139      M_A    0.0000
    981 C          65.5860  145.7759   76.9861 C.3     140      M_A    0.0000
    982 C          64.0995  146.0008   77.2467 C.3     140      M_A    0.0000
    983 O          63.8956  147.2190   77.9625 O.3     140      M_A    0.0000
    984 H          66.2007  146.4323   77.6113 H       140      M_A    0.0000
    985 H          65.8385  144.7410   77.2439 H       140      M_A    0.0000
    986 H          63.6751  145.1431   77.7881 H       140      M_A    0.0000
    987 H          63.5428  146.0764   76.3043 H       140      M_A    0.0000
    988 C          62.5575  147.6616   77.8596 C.3     141      M_A    0.0000
    989 C          62.4484  149.1818   77.9321 C.3     141      M_A    0.0000
    990 O          62.1054  149.5964   79.2543 O.3     141      M_A    0.0000
    991 H          61.9619  147.1846   78.6452 H       141      M_A    0.0000
    992 H          62.1641  147.3235   76.8941 H       141      M_A    0.0000
    993 H          61.7165  149.5452   77.1965 H       141      M_A    0.0000
    994 H          63.4039  149.6566   77.6764 H       141      M_A    0.0000
    995 C          62.8144  150.7589   79.6321 C.3     142      M_A    0.0000
    996 C          61.9582  151.7084   80.4650 C.3     142      M_A    0.0000
    997 O          62.3091  153.0656   80.1954 O.3     142      M_A    0.0000
    998 H          63.1932  151.2548   78.7320 H       142      M_A    0.0000
    999 H          63.6799  150.4471   80.2278 H       142      M_A    0.0000
   1000 H          62.0614  151.4734   81.5341 H       142      M_A    0.0000
   1001 H          60.8942  151.5903   80.2249 H       142      M_A    0.0000
   1002 C          63.5264  153.4189   80.8200 C.3     143      M_A    0.0000
   1003 C          63.3992  154.6969   81.6440 C.3     143      M_A    0.0000
   1004 O          63.9070  155.8146   80.9155 O.3     143      M_A    0.0000
   1005 H          64.3049  153.5171   80.0559 H       143      M_A    0.0000
   1006 H          63.8157  152.5963   81.4840 H       143      M_A    0.0000
   1007 H          63.9151  154.5799   82.6078 H       143      M_A    0.0000
   1008 H          62.3490  154.9086   81.8804 H       143      M_A    0.0000
   1009 C          63.9327  156.9821   81.7113 C.3     144      M_A    0.0000
   1010 C          62.5399  157.3815   82.1897 C.3     144      M_A    0.0000
   1011 O          62.0874  158.5449   81.4972 O.3     144      M_A    0.0000
   1012 H          64.4027  157.7917   81.1429 H       144      M_A    0.0000
   1013 H          64.5634  156.7808   82.5848 H       144      M_A    0.0000
   1014 H          62.5433  157.5398   83.2777 H       144      M_A    0.0000
   1015 H          61.8142  156.5815   81.9970 H       144      M_A    0.0000
   1016 C          60.7449  158.4079   81.0780 C.3     145      M_A    0.0000
   1017 C          60.3908  159.3818   79.9580 C.3     145      M_A    0.0000
   1018 O          59.3952  160.3067   80.3953 O.3     145      M_A    0.0000
   1019 H          60.0853  158.5422   81.9419 H       145      M_A    0.0000
   1020 H          60.6087  157.3834   80.7131 H       145      M_A    0.0000
   1021 H          60.0603  158.8305   79.0660 H       145      M_A    0.0000
   1022 H          61.2688  159.9645   79.6523 H       145      M_A    0.0000
   1023 C          59.4010  161.4821   79.6108 C.3     146      M_A    0.0000
   1024 C          58.3462  162.4843   80.0704 C.3     146      M_A    0.0000
   1025 O          57.5556  162.9210   78.9649 O.3     146      M_A    0.0000
   1026 H          59.2571  161.2108   78.5595 H       146      M_A    0.0000
   1027 H          60.3913  161.9429   79.7017 H       146      M_A    0.0000
   1028 H          58.8253  163.3329   80.5794 H       146      M_A    0.0000
   1029 H          57.6658  162.0305   80.8018 H       146      M_A    0.0000
   1030 C          56.2326  163.2201   79.3613 C.3     147      M_A    0.0000
   1031 C          55.9573  164.7209   79.3569 C.3     147      M_A    0.0000
   1032 O          55.0602  165.0682   80.4116 O.3     147      M_A    0.0000
   1033 H          56.0496  162.7875   80.3507 H       147      M_A    0.0000
   1034 H          55.5508  162.7325   78.6551 H       147      M_A    0.0000
   1035 H          55.5636  165.0316   78.3784 H       147      M_A    0.0000
   1036 H          56.8824  165.2901   79.5117 H       147      M_A    0.0000
   1037 C          53.7133  164.9944   79.9903 C.3     148      M_A    0.0000
   1038 C          53.3708  166.0762   78.9702 C.3     148      M_A    0.0000
   1039 O          52.3033  166.8947   79.4482 O.3     148      M_A    0.0000
   1040 H          53.0606  165.0573   80.8675 H       148      M_A    0.0000
   1041 H          53.5573  164.0117   79.5308 H       148      M_A    0.0000
   1042 H          53.1216  165.6193   78.0017 H       148      M_A    0.0000
   1043 H          54.2317  166.7318   78.7892 H       148      M_A    0.0000
   1044 C          51.0596  166.4849   78.9170 C.3     149      M_A    0.0000
   1045 C          50.0211  167.6020   78.9593 C.3     149      M_A    0.0000
   1046 O          49.1641  167.4460   80.0903 O.3     149      M_A    0.0000
   1047 H          50.7119  165.6010   79.4623 H       149      M_A    0.0000
   1048 H          51.2197  166.1891   77.8738 H       149      M_A    0.0000
   1049 H          49.4466  167.6218   78.0221 H       149      M_A    0.0000
   1050 H          50.5036  168.5835   79.0457 H       149      M_A    0.0000
   1051 C          48.3151  168.5637   80.2540 C.3     150      M_A    0.0000
   1052 C          49.0287  169.7334   80.9252 C.3     150      M_A    0.0000
   1053 O          48.1095  170.5014   81.7018 O.3     150      M_A    0.0000
   1054 H          47.4308  168.2602   80.8244 H       150      M_A    0.0000
   1055 H          47.9765  168.8781   79.2601 H       150      M_A    0.0000
   1056 H          49.5313  170.3550   80.1703 H       150      M_A    0.0000
   1057 H          49.8141  169.3771   81.6035 H       150      M_A    0.0000
   1058 C          47.7968  171.7265   81.0708 C.3     151      M_A    0.0000
   1059 C          46.9852  172.6481   81.9764 C.3     151      M_A    0.0000
   1060 O          45.8840  173.2091   81.2619 O.3     151      M_A    0.0000
   1061 H          47.2640  171.5213   80.1362 H       151      M_A    0.0000
   1062 H          48.7393  172.2229   80.8130 H       151      M_A    0.0000
   1063 H          47.6310  173.4328   82.3961 H       151      M_A    0.0000
   1064 H          46.5751  172.0965   82.8316 H       151      M_A    0.0000
   1065 C          45.0525  173.9741   82.1106 C.3     152      M_A    0.0000
   1066 C          43.6943  174.2611   81.4773 C.3     152      M_A    0.0000
   1067 O          43.1749  175.5044   81.9489 O.3     152      M_A    0.0000
   1068 H          45.5695  174.9027   82.3751 H       152      M_A    0.0000
   1069 H          44.8996  173.4051   83.0348 H       152      M_A    0.0000
   1070 H          42.9986  173.4343   81.6804 H       152      M_A    0.0000
   1071 H          43.7775  174.3327   80.3857 H       152      M_A    0.0000
   1072 C          41.9002  175.7733   81.4016 C.3     153      M_A    0.0000
   1073 C          40.8200  175.8568   82.4760 C.3     153      M_A    0.0000
   1074 O          39.5728  175.3814   81.9697 O.3     153      M_A    0.0000
   1075 H          41.6607  175.0046   80.6591 H       153      M_A    0.0000
   1076 H          41.9543  176.7346   80.8778 H       153      M_A    0.0000
   1077 H          40.7337  176.8878   82.8480 H       153      M_A    0.0000
   1078 H          41.0802  175.2371   83.3432 H       153      M_A    0.0000
   1079 C          38.9049  176.3771   81.2218 C.3     154      M_A    0.0000
   1080 C          37.6684  176.9047   81.9437 C.3     154      M_A    0.0000
   1081 O          36.4850  176.5713   81.2183 O.3     154      M_A    0.0000
   1082 H          38.6453  175.9714   80.2382 H       154      M_A    0.0000
   1083 H          39.6042  177.2062   81.0643 H       154      M_A    0.0000
   1084 H          37.7519  177.9906   82.0953 H       154      M_A    0.0000
   1085 H          37.5776  176.4603   82.9427 H       154      M_A    0.0000
   1086 C          35.3212  176.9458   81.9270 C.3     155      M_A    0.0000
   1087 C          34.1305  176.0540   81.5878 C.3     155      M_A    0.0000
   1088 O          33.0486  176.8352   81.0807 O.3     155      M_A    0.0000
   1089 H          35.0991  177.9979   81.7189 H       155      M_A    0.0000
   1090 H          35.5361  176.8580   82.9982 H       155      M_A    0.0000
   1091 H          33.8260  175.4751   82.4716 H       155      M_A    0.0000
   1092 H          34.3964  175.3209   80.8159 H       155      M_A    0.0000
   1093 C          32.4812  176.2464   79.9282 C.3     156      M_A    0.0000
   1094 C          33.5204  176.0000   78.8385 C.3     156      M_A    0.0000
   1095 O          32.8904  175.8864   77.5625 O.3     156      M_A    0.0000
   1096 H          31.6697  176.8851   79.5633 H       156      M_A    0.0000
   1097 H          32.0411  175.2866   80.2219 H       156      M_A    0.0000
   1098 H          34.1118  175.1034   79.0738 H       156      M_A    0.0000
   1099 H          34.2329  176.8324   78.7801 H       156      M_A    0.0000
   1100 C          32.3685  174.5894   77.3571 C.3     157      M_A    0.0000
   1101 C          32.1599  174.2822   75.8772 C.3     157      M_A    0.0000
   1102 O          30.7774  174.0547   75.6033 O.3     157      M_A    0.0000
   1103 H          31.4331  174.4877   77.9176 H       157      M_A    0.0000
   1104 H          33.0831  173.8690   77.7715 H       157      M_A    0.0000
   1105 H          32.7738  173.4204   75.5783 H       157      M_A    0.0000
   1106 H          32.4845  175.1234   75.2521 H       157      M_A    0.0000
   1107 C          30.4789  174.2666   74.2384 C.3     158      M_A    0.0000
   1108 C          29.9557  173.0029   73.5622 C.3     158      M_A    0.0000
   1109 O          30.4079  172.9350   72.2099 O.3     158      M_A    0.0000
   1110 H          31.3731  174.6449   73.7316 H       158      M_A    0.0000
   1111 H          29.7097  175.0451   74.1786 H       158      M_A    0.0000
   1112 H          28.8582  172.9686   73.6190 H       158      M_A    0.0000
   1113 H          30.3190  172.1038   74.0755 H       158      M_A    0.0000
   1114 C          29.3454  173.1300   71.2989 C.3     159      M_A    0.0000
   1115 C          29.7973  172.9801   69.8492 C.3     159      M_A    0.0000
   1116 O          29.9198  174.2597   69.2283 O.3     159      M_A    0.0000
   1117 H          28.9004  174.1152   71.4743 H       159      M_A    0.0000
   1118 H          28.5775  172.3771   71.5105 H       159      M_A    0.0000
   1119 H          29.0984  172.3338   69.2988 H       159      M_A    0.0000
   1120 H          30.7782  172.4920   69.7922 H       159      M_A    0.0000
   1121 C          29.8100  174.1652   67.8227 C.3     160      M_A    0.0000
   1122 C          30.6081  175.2529   67.1100 C.3     160      M_A    0.0000
   1123 O          29.7641  176.3542   66.7741 O.3     160      M_A    0.0000
   1124 H          28.7517  174.2043   67.5435 H       160      M_A    0.0000
   1125 H          30.1968  173.1855   67.5196 H       160      M_A    0.0000
   1126 H          31.1003  174.8396   66.2178 H       160      M_A    0.0000
   1127 H          31.4093  175.6374   67.7535 H       160      M_A    0.0000
   1128 C          30.1925  176.9910   65.5876 C.3     161      M_A    0.0000
   1129 C          30.9304  178.2962   65.8708 C.3     161      M_A    0.0000
   1130 O          30.3864  179.3587   65.0880 O.3     161      M_A    0.0000
   1131 H          29.3258  177.1595   64.9396 H       161      M_A    0.0000
   1132 H          30.8701  176.3071   65.0638 H       161      M_A    0.0000
   1133 H          32.0067  178.1720   65.6834 H       161      M_A    0.0000
   1134 H          30.8323  178.5817   66.9256 H       161      M_A    0.0000
   1135 C          31.3664  180.3295   64.7814 C.3     162      M_A    0.0000
   1136 C          30.8213  181.7504   64.8920 C.3     162      M_A    0.0000
   1137 O          30.9743  182.4429   63.6530 O.3     162      M_A    0.0000
   1138 H          31.7612  180.1345   63.7787 H       162      M_A    0.0000
   1139 H          32.1925  180.2105   65.4918 H       162      M_A    0.0000
   1140 H          31.3197  182.2853   65.7132 H       162      M_A    0.0000
   1141 H          29.7512  181.7426   65.1340 H       162      M_A    0.0000
   1142 C          30.5733  183.7935   63.7625 C.3     163      M_A    0.0000
   1143 C          29.3619  184.1054   62.8888 C.3     163      M_A    0.0000
   1144 O          29.7144  185.0231   61.8537 O.3     163      M_A    0.0000
   1145 H          31.4206  184.4395   63.5087 H       163      M_A    0.0000
   1146 H          30.3134  183.9840   64.8101 H       163      M_A    0.0000
   1147 H          28.5394  184.4951   63.5057 H       163      M_A    0.0000
   1148 H          28.9813  183.1964   62.4064 H       163      M_A    0.0000
   1149 C          28.9208  184.8314   60.7003 C.3     164      M_A    0.0000
   1150 C          28.8954  186.0693   59.8086 C.3     164      M_A    0.0000
   1151 O          27.9050  186.9921   60.2615 O.3     164      M_A    0.0000
   1152 H          27.9092  184.5438   61.0062 H       164      M_A    0.0000
   1153 H          29.3461  183.9950   60.1338 H       164      M_A    0.0000
   1154 H          28.7232  185.7796   58.7619 H       164      M_A    0.0000
   1155 H          29.8619  186.5881   59.8296 H       164      M_A    0.0000
   1156 C          28.4656  187.9831   61.0985 C.3     165      M_A    0.0000
   1157 C          27.8773  189.3644   60.8266 C.3     165      M_A    0.0000
   1158 O          28.8746  190.3733   60.9857 O.3     165      M_A    0.0000
   1159 H          29.5534  187.9847   60.9713 H       165      M_A    0.0000
   1160 H          28.2539  187.7058   62.1375 H       165      M_A    0.0000
   1161 H          27.0158  189.5463   61.4851 H       165      M_A    0.0000
   1162 H          27.4998  189.4349   59.7988 H       165      M_A    0.0000
   1163 C          28.6636  191.4535   60.0993 C.3     166      M_A    0.0000
   1164 C          28.7834  192.8034   60.8005 C.3     166      M_A    0.0000
   1165 O          28.1699  193.8291   60.0198 O.3     166      M_A    0.0000
   1166 H          27.6830  191.3401   59.6249 H       166      M_A    0.0000
   1167 H          29.4222  191.3952   59.3104 H       166      M_A    0.0000
   1168 H          29.8393  193.0331   61.0038 H       166      M_A    0.0000
   1169 H          28.2789  192.7859   61.7747 H       166      M_A    0.0000
   1170 C          29.1040  194.4574   59.1656 C.3     167      M_A    0.0000
   1171 C          30.1306  195.2773   59.9415 C.3     167      M_A    0.0000
   1172 O          30.3766  196.5212   59.2857 O.3     167      M_A    0.0000
   1173 H          28.5652  195.0798   58.4433 H       167      M_A    0.0000
   1174 H          29.6266  193.6747   58.6039 H       167      M_A    0.0000
   1175 H          31.0587  194.7016   60.0682 H       167      M_A    0.0000
   1176 H          29.7687  195.5047   60.9520 H       167      M_A    0.0000
   1177 C          31.1809  197.3726   60.0763 C.3     168      M_A    0.0000
   1178 C          31.3564  198.7490   59.4418 C.3     168      M_A    0.0000
   1179 O          32.7077  198.9380   59.0219 O.3     168      M_A    0.0000
   1180 H          32.1490  196.8906   60.2492 H       168      M_A    0.0000
   1181 H          30.6910  197.4907   61.0497 H       168      M_A    0.0000
   1182 H          31.0427  199.5339   60.1450 H       168      M_A    0.0000
   1183 H          30.7189  198.8568   58.5554 H       168      M_A    0.0000
   1184 C          32.7797  199.7188   57.8464 C.3     169      M_A    0.0000
   1185 C          33.9976  200.6378   57.8413 C.3     169      M_A    0.0000
   1186 O          33.6037  201.9894   57.6045 O.3     169      M_A    0.0000
   1187 H          31.8520  200.2912   57.7402 H       169      M_A    0.0000
   1188 H          32.8473  199.0358   56.9918 H       169      M_A    0.0000
   1189 H          34.7272  200.2970   57.0926 H       169      M_A    0.0000
   1190 H          34.5139  200.6108   58.8090 H       169      M_A    0.0000
   1191 C          34.6124  202.8983   57.9962 C.3     170      M_A    0.0000
   1192 C          35.0564  203.7947   56.8441 C.3     170      M_A    0.0000
   1193 O          36.4672  204.0081   56.8910 O.3     170      M_A    0.0000
   1194 H          35.4577  202.3377   58.4094 H       170      M_A    0.0000
   1195 H          34.2074  203.5261   58.7981 H       170      M_A    0.0000
   1196 H          34.5069  204.7467   56.8704 H       170      M_A    0.0000
   1197 H          34.8261  203.3327   55.8759 H       170      M_A    0.0000
   1198 C          36.8524  205.0996   56.0803 C.3     171      M_A    0.0000
   1199 C          36.2903  204.9908   54.6660 C.3     171      M_A    0.0000
   1200 O          37.1861  205.5816   53.7246 O.3     171      M_A    0.0000
   1201 H          37.9455  205.1667   56.0672 H       171      M_A    0.0000
   1202 H          36.4697  206.0157   56.5445 H       171      M_A    0.0000
   1203 H          35.2948  205.4552   54.6165 H       171      M_A    0.0000
   1204 H          36.1552  203.9411   54.3769 H       171      M_A    0.0000
   1205 C          36.9126  206.9560   53.5426 C.3     172      M_A    0.0000
   1206 C          37.0270  207.3754   52.0800 C.3     172      M_A    0.0000
   1207 O          38.3166  207.9285   51.8174 O.3     172      M_A    0.0000
   1208 H          37.5877  207.5416   54.1757 H       172      M_A    0.0000
   1209 H          35.8891  207.1444   53.8864 H       172      M_A    0.0000
   1210 H          36.2277  208.0862   51.8254 H       172      M_A    0.0000
   1211 H          36.8971  206.5139   51.4132 H       172      M_A    0.0000
   1212 C          38.5112  208.1539   50.4360 C.3     173      M_A    0.0000
   1213 C          38.6416  206.8499   49.6544 C.3     173      M_A    0.0000
   1214 O          39.7693  206.9010   48.7805 O.3     173      M_A    0.0000
   1215 H          39.3938  208.7874   50.2981 H       173      M_A    0.0000
   1216 H          37.6436  208.7077   50.0594 H       173      M_A    0.0000
   1217 H          37.7147  206.6458   49.0994 H       173      M_A    0.0000
   1218 H          38.7890  205.9994   50.3315 H       173      M_A    0.0000
   1219 C          40.0090  208.2158   48.3216 C.3     174      M_A    0.0000
   1220 C          40.3220  208.2547   46.8287 C.3     174      M_A    0.0000
   1221 O          41.1233  209.3937   46.5149 O.3     174      M_A    0.0000
   1222 H          40.8227  208.6561   48.9077 H       174      M_A    0.0000
   1223 H          39.1064  208.8083   48.5102 H       174      M_A    0.0000
   1224 H          39.3901  208.2484   46.2453 H       174      M_A    0.0000
   1225 H          40.8835  207.3634   46.5220 H       174      M_A    0.0000
   1226 C          40.3484  210.5744   46.4687 C.3     175      M_A    0.0000
   1227 C          41.2104  211.8202   46.2871 C.3     175      M_A    0.0000
   1228 O          41.1687  212.6330   47.4600 O.3     175      M_A    0.0000
   1229 H          39.7441  210.6412   47.3796 H       175      M_A    0.0000
   1230 H          39.6601  210.4927   45.6196 H       175      M_A    0.0000
   1231 H          40.8840  212.3816   45.3998 H       175      M_A    0.0000
   1232 H          42.2592  211.5498   46.1120 H       175      M_A    0.0000
   1233 C          42.2406  213.5533   47.4898 C.3     176      M_A    0.0000
   1234 C          41.7969  214.9365   47.9569 C.3     176      M_A    0.0000
   1235 O          42.4410  215.9541   47.1905 O.3     176      M_A    0.0000
   1236 H          42.6994  213.5999   46.4964 H       176      M_A    0.0000
   1237 H          42.9952  213.1693   48.1858 H       176      M_A    0.0000
   1238 H          41.9983  215.0570   49.0311 H       176      M_A    0.0000
   1239 H          40.7147  215.0652   47.8301 H       176      M_A    0.0000
   1240 C          42.8231  217.0475   48.0000 C.3     177      M_A    0.0000
   1241 C          42.3596  218.3806   47.4203 C.3     177      M_A    0.0000
   1242 O          43.4549  219.2905   47.3194 O.3     177      M_A    0.0000
   1243 H          43.9101  217.0309   48.1332 H       177      M_A    0.0000
   1244 H          42.3662  216.9120   48.9870 H       177      M_A    0.0000
   1245 H          41.5475  218.7988   48.0324 H       177      M_A    0.0000
   1246 H          41.9484  218.2484   46.4117 H       177      M_A    0.0000
   1247 C          43.7192  219.9209   48.5562 C.3     178      M_A    0.0000
   1248 C          44.0093  221.4098   48.3912 C.3     178      M_A    0.0000
   1249 O          45.3583  221.6134   47.9711 O.3     178      M_A    0.0000
   1250 H          44.5526  219.4079   49.0479 H       178      M_A    0.0000
   1251 H          42.8345  219.8004   49.1918 H       178      M_A    0.0000
   1252 H          43.7975  221.9438   49.3287 H       178      M_A    0.0000
   1253 H          43.3572  221.8547   47.6292 H       178      M_A    0.0000
   1254 C          45.5538  221.1913   46.6368 C.3     179      M_A    0.0000
   1255 C          46.1106  222.3069   45.7574 C.3     179      M_A    0.0000
   1256 O          45.2030  222.6092   44.6978 O.3     179      M_A    0.0000
   1257 H          44.6066  220.8106   46.2400 H       179      M_A    0.0000
   1258 H          46.2669  220.3590   46.6476 H       179      M_A    0.0000
   1259 H          47.0999  222.0257   45.3685 H       179      M_A    0.0000
   1260 H          46.2575  223.2271   46.3366 H       179      M_A    0.0000
   1261 C          45.5877  223.7795   44.0054 C.3     180      M_A    0.0000
   1262 C          44.9905  223.8391   42.6026 C.3     180      M_A    0.0000
   1263 O          45.9752  224.2556   41.6567 O.3     180      M_A    0.0000
   1264 H          46.6812  223.8318   43.9721 H       180      M_A    0.0000
   1265 H          45.2319  224.6429   44.5792 H       180      M_A    0.0000
   1266 H          44.1166  224.5063   42.5901 H       180      M_A    0.0000
   1267 H          44.6291  222.8522   42.2875 H       180      M_A    0.0000
   1268 C          45.3887  224.9316   40.5632 C.3     181      M_A    0.0000
   1269 C          46.4270  225.3670   39.5334 C.3     181      M_A    0.0000
   1270 O          46.5960  226.7842   39.5614 O.3     181      M_A    0.0000
   1271 H          44.8190  225.7891   40.9370 H       181      M_A    0.0000
   1272 H          44.6800  224.2464   40.0842 H       181      M_A    0.0000
   1273 H          46.1373  225.0185   38.5316 H       181      M_A    0.0000
   1274 H          47.4041  224.9154   39.7460 H       181      M_A    0.0000
   1275 C          47.9502  227.1472   39.3843 C.3     182      M_A    0.0000
   1276 C          48.1482  228.6597   39.4168 C.3     182      M_A    0.0000
   1277 O          49.1823  229.0487   38.5128 O.3     182      M_A    0.0000
   1278 H          48.3143  226.7209   38.4434 H       182      M_A    0.0000
   1279 H          48.5292  226.6962   40.1984 H       182      M_A    0.0000
   1280 H          48.3673  228.9919   40.4418 H       182      M_A    0.0000
   1281 H          47.2325  229.1821   39.1128 H       182      M_A    0.0000
   1282 C          48.9917  230.3688   38.0461 C.3     183      M_A    0.0000
   1283 C          50.2034  230.8863   37.2766 C.3     183      M_A    0.0000
   1284 O          50.8382  231.9440   37.9950 O.3     183      M_A    0.0000
   1285 H          48.7566  231.0180   38.8963 H       183      M_A    0.0000
   1286 H          48.1220  230.3682   37.3791 H       183      M_A    0.0000
   1287 H          49.9034  231.2105   36.2697 H       183      M_A    0.0000
   1288 H          50.9473  230.0922   37.1356 H       183      M_A    0.0000
   1289 C          52.1565  232.1628   37.5357 C.3     184      M_A    0.0000
   1290 C          52.4472  233.6434   37.3089 C.3     184      M_A    0.0000
   1291 O          53.1075  233.8380   36.0583 O.3     184      M_A    0.0000
   1292 H          52.3166  231.5838   36.6199 H       184      M_A    0.0000
   1293 H          52.8464  231.7785   38.2957 H       184      M_A    0.0000
   1294 H          53.0418  234.0454   38.1419 H       184      M_A    0.0000
   1295 H          51.5181  234.2266   37.2840 H       184      M_A    0.0000
   1296 C          53.2073  235.2098   35.7341 C.3     185      M_A    0.0000
   1297 C          54.5115  235.5358   35.0124 C.3     185      M_A    0.0000
   1298 O          54.9851  236.8274   35.3936 O.3     185      M_A    0.0000
   1299 H          53.1034  235.8019   36.6496 H       185      M_A    0.0000
   1300 H          52.3664  235.4631   35.0784 H       185      M_A    0.0000
   1301 H          54.3706  235.4668   33.9241 H       185      M_A    0.0000
   1302 H          55.2938  234.8103   35.2684 H       185      M_A    0.0000
   1303 C          54.4074  237.8448   34.6012 C.3     186      M_A    0.0000
   1304 C          55.4259  238.9072   34.1987 C.3     186      M_A    0.0000
   1305 O          55.0030  240.1979   34.6381 O.3     186      M_A    0.0000
   1306 H          53.5675  238.2888   35.1462 H       186      M_A    0.0000
   1307 H          54.0047  237.3783   33.6948 H       186      M_A    0.0000
   1308 H          55.5852  238.8875   33.1110 H       186      M_A    0.0000
   1309 H          56.4028  238.7080   34.6568 H       186      M_A    0.0000
   1310 C          55.3499  241.2012   33.7054 C.3     187      M_A    0.0000
   1311 C          56.7408  240.9824   33.1175 C.3     187      M_A    0.0000
   1312 O          57.5520  242.1418   33.3064 O.3     187      M_A    0.0000
   1313 H          55.2749  242.1806   34.1896 H       187      M_A    0.0000
   1314 H          54.6139  241.1756   32.8936 H       187      M_A    0.0000
   1315 H          56.6655  240.7160   32.0534 H       187      M_A    0.0000
   1316 H          57.2476  240.1431   33.6101 H       187      M_A    0.0000
   1317 C          58.4068  242.3603   32.2025 C.3     188      M_A    0.0000
   1318 C          59.8782  242.3575   32.6064 C.3     188      M_A    0.0000
   1319 O          60.5617  243.4624   32.0150 O.3     188      M_A    0.0000
   1320 H          58.1316  243.3035   31.7186 H       188      M_A    0.0000
   1321 H          58.2361  241.5546   31.4794 H       188      M_A    0.0000
   1322 H          60.3463  241.4023   32.3280 H       188      M_A    0.0000
   1323 H          59.9868  242.4482   33.6944 H       188      M_A    0.0000
   1324 C          60.9288  243.1881   30.6783 C.3     189      M_A    0.0000
   1325 C          62.2367  243.8716   30.2903 C.3     189      M_A    0.0000
   1326 O          62.0013  244.8833   29.3111 O.3     189      M_A    0.0000
   1327 H          60.1124  243.4909   30.0141 H       189      M_A    0.0000
   1328 H          61.0524  242.1036   30.5786 H       189      M_A    0.0000
   1329 H          62.9615  243.1273   29.9301 H       189      M_A    0.0000
   1330 H          62.6990  244.3565   31.1591 H       189      M_A    0.0000
   1331 C          63.1629  245.6516   29.0718 C.3     190      M_A    0.0000
   1332 C          63.5181  246.5406   30.2599 C.3     190      M_A    0.0000
   1333 O          64.2346  247.6958   29.8241 O.3     190      M_A    0.0000
   1334 H          63.0175  246.2456   28.1632 H       190      M_A    0.0000
   1335 H          63.9924  244.9597   28.8862 H       190      M_A    0.0000
   1336 H          64.0938  245.9695   31.0025 H       190      M_A    0.0000
   1337 H          62.6135  246.8895   30.7735 H       190      M_A    0.0000
   1338 C          65.4080  247.3418   29.1207 C.3     191      M_A    0.0000
   1339 C          66.3094  246.4188   29.9354 C.3     191      M_A    0.0000
   1340 O          67.2526  247.1791   30.6905 O.3     191      M_A    0.0000
   1341 H          65.9380  248.2543   28.8277 H       191      M_A    0.0000
   1342 H          65.1073  246.8240   28.2027 H       191      M_A    0.0000
   1343 H          66.8134  245.6997   29.2738 H       191      M_A    0.0000
   1344 H          65.7223  245.8242   30.6465 H       191      M_A    0.0000
   1345 C          66.6097  248.1344   31.5096 C.3     192      M_A    0.0000
   1346 C          67.4599  249.3857   31.7082 C.3     192      M_A    0.0000
   1347 O          68.3716  249.2046   32.7917 O.3     192      M_A    0.0000
   1348 H          66.3584  247.6708   32.4695 H       192      M_A    0.0000
   1349 H          65.6698  248.4181   31.0224 H       192      M_A    0.0000
   1350 H          66.8148  250.2612   31.8705 H       192      M_A    0.0000
   1351 H          68.0541  249.6029   30.8118 H       192      M_A    0.0000
   1352 C          69.3909  248.2832   32.4614 C.3     193      M_A    0.0000
   1353 C          70.7666  248.7619   32.9157 C.3     193      M_A    0.0000
   1354 O          71.7120  248.6495   31.8520 O.3     193      M_A    0.0000
   1355 H          69.3722  248.1016   31.3816 H       193      M_A    0.0000
   1356 H          69.1626  247.3348   32.9611 H       193      M_A    0.0000
   1357 H          71.0918  248.1967   33.8011 H       193      M_A    0.0000
   1358 H          70.7355  249.8162   33.2176 H       193      M_A    0.0000
   1359 C          73.0214  248.4462   32.3431 C.3     194      M_A    0.0000
   1360 C          74.0827  248.9848   31.3884 C.3     194      M_A    0.0000
   1361 O          75.1252  248.0265   31.2069 O.3     194      M_A    0.0000
   1362 H          73.1687  247.3783   32.5363 H       194      M_A    0.0000
   1363 H          73.1072  248.9713   33.3013 H       194      M_A    0.0000
   1364 H          74.4786  249.9405   31.7611 H       194      M_A    0.0000
   1365 H          73.6528  249.1935   30.4008 H       194      M_A    0.0000
   1366 C          75.9869  248.3938   30.1488 C.3     195      M_A    0.0000
   1367 C          77.3885  247.8167   30.3232 C.3     195      M_A    0.0000
   1368 O          78.3748  248.8307   30.1313 O.3     195      M_A    0.0000
   1369 H          76.0156  249.4861   30.0742 H       195      M_A    0.0000
   1370 H          75.5585  248.0090   29.2163 H       195      M_A    0.0000
   1371 H          77.5409  246.9748   29.6325 H       195      M_A    0.0000
   1372 H          77.5241  247.4137   31.3346 H       195      M_A    0.0000
   1373 C          79.5490  248.5562   30.8680 C.3     196      M_A    0.0000
   1374 C          80.7172  248.1729   29.9645 C.3     196      M_A    0.0000
   1375 O          81.1540  246.8437   30.2480 O.3     196      M_A    0.0000
   1376 H          79.3372  247.7665   31.5968 H       196      M_A    0.0000
   1377 H          79.8151  249.4605   31.4272 H       196      M_A    0.0000
   1378 H          81.5377  248.8961   30.0776 H       196      M_A    0.0000
   1379 H          80.4229  248.2036   28.9080 H       196      M_A    0.0000
   1380 C          82.5301  246.6813   29.9708 C.3     197      M_A    0.0000
   1381 C          82.8669  245.2533   29.5521 C.3     197      M_A    0.0000
   1382 O          84.1562  244.8800   30.0382 O.3     197      M_A    0.0000
   1383 H          83.1096  246.9826   30.8500 H       197      M_A    0.0000
   1384 H          82.7916  247.3618   29.1524 H       197      M_A    0.0000
   1385 H          82.8078  245.1545   28.4586 H       197      M_A    0.0000
   1386 H          82.1413  244.5416   29.9653 H       197      M_A    0.0000
   1387 C          85.0236  244.5219   28.9817 C.3     198      M_A    0.0000
   1388 C          85.3977  243.0433   29.0221 C.3     198      M_A    0.0000
   1389 O          86.8117  242.8816   28.9121 O.3     198      M_A    0.0000
   1390 H          85.9154  245.1565   29.0208 H       198      M_A    0.0000
   1391 H          84.5087  244.7318   28.0372 H       198      M_A    0.0000
   1392 H          84.8697  242.4964   28.2277 H       198      M_A    0.0000
   1393 H          85.0874  242.5856   29.9698 H       198      M_A    0.0000
   1394 C          87.1448  241.6784   28.2500 C.3     199      M_A    0.0000
   1395 C          88.0063  240.7653   29.1173 C.3     199      M_A    0.0000
   1396 O          89.3453  240.7239   28.6241 O.3     199      M_A    0.0000
   1397 H          87.6473  241.9169   27.3066 H       199      M_A    0.0000
   1398 H          86.2113  241.1584   28.0061 H       199      M_A    0.0000
   1399 H          87.5657  239.7589   29.1631 H       199      M_A    0.0000
   1400 H          88.0481  241.1306   30.1510 H       199      M_A    0.0000
   1401 C          90.0622  239.6329   29.1651 C.3     200      M_A    0.0000
   1402 C          91.5708  239.8563   29.1162 C.3     200      M_A    0.0000
   1403 O          92.1544  239.1010   28.0547 O.3     200      M_A    0.0000
   1404 H          89.7803  238.7196   28.6304 H       200      M_A    0.0000
   1405 H          89.7552  239.5130   30.2104 H       200      M_A    0.0000
   1406 H          92.0239  239.6007   30.0849 H       200      M_A    0.0000
   1407 H          91.8055  240.9127   28.9354 H       200      M_A    0.0000
   1408 C          93.5443  238.9303   28.2448 C.3     201      M_A    0.0000
   1409 C          94.2097  238.2606   27.0461 C.3     201      M_A    0.0000
   1410 O          94.8912  237.0733   27.4507 O.3     201      M_A    0.0000
   1411 H          93.7116  238.3556   29.1619 H       201      M_A    0.0000
   1412 H          93.9889  239.9216   28.3891 H       201      M_A    0.0000
   1413 H          94.8930  238.9642   26.5492 H       201      M_A    0.0000
   1414 H          93.4647  237.9717   26.2942 H       201      M_A    0.0000
   1415 C          95.8781  237.3495   28.4236 C.3     202      M_A    0.0000
   1416 C          97.1297  236.4985   28.2295 C.3     202      M_A    0.0000
   1417 O          96.9569  235.2117   28.8229 O.3     202      M_A    0.0000
   1418 H          95.4492  237.2001   29.4202 H       202      M_A    0.0000
   1419 H          96.1514  238.4072   28.3356 H       202      M_A    0.0000
   1420 H          98.0077  237.0150   28.6432 H       202      M_A    0.0000
   1421 H          97.3375  236.3435   27.1634 H       202      M_A    0.0000
   1422 C          97.8410  234.2615   28.2639 C.3     203      M_A    0.0000
   1423 C          97.4372  233.8656   26.8467 C.3     203      M_A    0.0000
   1424 O          97.7244  232.4872   26.6111 O.3     203      M_A    0.0000
   1425 H          97.8871  233.3864   28.9209 H       203      M_A    0.0000
   1426 H          98.8416  234.7079   28.2358 H       203      M_A    0.0000
   1427 H          97.9431  234.5104   26.1138 H       203      M_A    0.0000
   1428 H          96.3605  234.0081   26.6910 H       203      M_A    0.0000
   1429 C          99.0281  232.1500   27.0393 C.3     204      M_A    0.0000
   1430 C          99.9339  231.7654   25.8731 C.3     204      M_A    0.0000
   1431 O         100.7701  230.6650   26.2306 O.3     204      M_A    0.0000
   1432 H          98.9648  231.3405   27.7742 H       204      M_A    0.0000
   1433 H          99.4534  233.0244   27.5451 H       204      M_A    0.0000
   1434 H         100.5293  232.6326   25.5530 H       204      M_A    0.0000
   1435 H          99.3426  231.4590   25.0012 H       204      M_A    0.0000
   1436 C         101.7289  231.0375   27.1995 C.3     205      M_A    0.0000
   1437 C         103.1365  231.1120   26.6152 C.3     205      M_A    0.0000
   1438 O         103.9099  229.9852   27.0276 O.3     205      M_A    0.0000
   1439 H         101.6849  230.3315   28.0357 H       205      M_A    0.0000
   1440 H         101.4523  232.0255   27.5850 H       205      M_A    0.0000
   1441 H         103.6188  232.0562   26.9064 H       205      M_A    0.0000
   1442 H         103.1070  231.1066   25.5184 H       205      M_A    0.0000
   1443 C         105.0458  229.8089   26.2058 C.3     206      M_A    0.0000
   1444 C         106.3381  229.7589   27.0155 C.3     206      M_A    0.0000
   1445 O         107.4470  230.1661   26.2140 O.3     206      M_A    0.0000
   1446 H         105.0765  230.6117   25.4615 H       206      M_A    0.0000
   1447 H         104.9282  228.8617   25.6670 H       206      M_A    0.0000
   1448 H         106.4902  228.7501   27.4256 H       206      M_A    0.0000
   1449 H         106.2884  230.4372   27.8764 H       206      M_A    0.0000
   1450 C         107.7738  229.1879   25.2480 C.3     207      M_A    0.0000
   1451 C         109.2762  228.9312   25.1763 C.3     207      M_A    0.0000
   1452 O         109.8091  229.4190   23.9451 O.3     207      M_A    0.0000
   1453 H         107.3794  229.5005   24.2753 H       207      M_A    0.0000
   1454 H         107.2679  228.2565   25.5270 H       207      M_A    0.0000
   1455 H         109.4847  227.8594   25.3055 H       207      M_A    0.0000
   1456 H         109.8019  229.4475   25.9893 H       207      M_A    0.0000
   1457 C         111.2086  229.5990   24.0225 C.3     208      M_A    0.0000
   1458 C         111.8788  229.4830   22.6566 C.3     208      M_A    0.0000
   1459 O         113.1955  228.9477   22.7891 O.3     208      M_A    0.0000
   1460 H         111.6237  228.8728   24.7295 H       208      M_A    0.0000
   1461 H         111.3978  230.6002   24.4263 H       208      M_A    0.0000
   1462 H         111.8936  230.4622   22.1568 H       208      M_A    0.0000
   1463 H         111.3151  228.8097   21.9987 H       208      M_A    0.0000
   1464 C         114.1769  229.9604   22.6989 C.3     209      M_A    0.0000
   1465 C         115.5415  229.4039   22.3036 C.3     209      M_A    0.0000
   1466 O         116.2377  228.9222   23.4530 O.3     209      M_A    0.0000
   1467 H         114.2291  230.4935   23.6542 H       209      M_A    0.0000
   1468 H         113.8521  230.6776   21.9364 H       209      M_A    0.0000
   1469 H         116.1255  230.1709   21.7748 H       209      M_A    0.0000
   1470 H         115.4357  228.5627   21.6072 H       209      M_A    0.0000
   1471 C         117.6136  228.7417   23.1864 C.3     210      M_A    0.0000
   1472 C         117.9494  227.2898   22.8588 C.3     210      M_A    0.0000
   1473 O         118.1938  226.5504   24.0552 O.3     210      M_A    0.0000
   1474 H         118.1936  229.0976   24.0446 H       210      M_A    0.0000
   1475 H         117.8753  229.3689   22.3265 H       210      M_A    0.0000
   1476 H         118.8110  227.2440   22.1773 H       210      M_A    0.0000
   1477 H         117.1168  226.8027   22.3359 H       210      M_A    0.0000
   1478 C         117.4121  225.3743   24.1052 C.3     211      M_A    0.0000
   1479 C         117.8779  224.4215   25.2021 C.3     211      M_A    0.0000
   1480 O         118.1404  223.1264   24.6619 O.3     211      M_A    0.0000
   1481 H         117.4342  224.8885   23.1239 H       211      M_A    0.0000
   1482 H         116.3753  225.6671   24.3067 H       211      M_A    0.0000
   1483 H         117.1303  224.3749   26.0071 H       211      M_A    0.0000
   1484 H         118.8065  224.7790   25.6644 H       211      M_A    0.0000
   1485 C         118.3686  222.1766   25.6830 C.3     212      M_A    0.0000
   1486 C         119.7995  222.2325   26.2099 C.3     212      M_A    0.0000
   1487 O         120.4625  220.9874   25.9908 O.3     212      M_A    0.0000
   1488 H         118.1259  221.1784   25.3032 H       212      M_A    0.0000
   1489 H         117.6788  222.3947   26.5063 H       212      M_A    0.0000
   1490 H         119.8012  222.5045   27.2752 H       212      M_A    0.0000
   1491 H         120.3781  223.0083   25.6929 H       212      M_A    0.0000
   1492 C         119.7193  219.9063   26.5158 C.3     213      M_A    0.0000
   1493 C         120.6045  218.9044   27.2512 C.3     213      M_A    0.0000
   1494 O         120.7739  217.7202   26.4723 O.3     213      M_A    0.0000
   1495 H         119.1674  219.4236   25.7023 H       213      M_A    0.0000
   1496 H         118.9840  220.3130   27.2195 H       213      M_A    0.0000
   1497 H         120.1793  218.6759   28.2391 H       213      M_A    0.0000
   1498 H         121.6022  219.3226   27.4345 H       213      M_A    0.0000
   1499 C         120.8256  216.5675   27.2881 C.3     214      M_A    0.0000
   1500 C         122.2524  216.0602   27.4754 C.3     214      M_A    0.0000
   1501 O         122.3846  214.7361   26.9585 O.3     214      M_A    0.0000
   1502 H         120.1845  215.7931   26.8536 H       214      M_A    0.0000
   1503 H         120.4110  216.8295   28.2683 H       214      M_A    0.0000
   1504 H         122.5349  216.1051   28.5370 H       214      M_A    0.0000
   1505 H         122.9684  216.6953   26.9389 H       214      M_A    0.0000
   1506 C         123.5185  214.0833   27.4924 C.3     215      M_A    0.0000
   1507 C         123.6266  212.6380   27.0153 C.3     215      M_A    0.0000
   1508 O         124.4464  211.8779   27.9031 O.3     215      M_A    0.0000
   1509 H         123.4799  214.1369   28.5856 H       215      M_A    0.0000
   1510 H         124.4088  214.6323   27.1648 H       215      M_A    0.0000
   1511 H         124.0141  212.6058   25.9869 H       215      M_A    0.0000
   1512 H         122.6400  212.1588   26.9879 H       215      M_A    0.0000
   1513 C         125.6599  212.5448   28.1851 C.3     216      M_A    0.0000
   1514 C         126.7705  211.5746   28.5769 C.3     216      M_A    0.0000
   1515 O         127.5701  212.1255   29.6234 O.3     216      M_A    0.0000
   1516 H         125.4859  213.2855   28.9728 H       216      M_A    0.0000
   1517 H         125.9645  213.0864   27.2822 H       216      M_A    0.0000
   1518 H         127.3811  211.3217   27.6981 H       216      M_A    0.0000
   1519 H         126.3538  210.6288   28.9451 H       216      M_A    0.0000
   1520 C         128.0834  211.1158   30.4683 C.3     217      M_A    0.0000
   1521 C         129.4509  211.4832   31.0368 C.3     217      M_A    0.0000
   1522 O         130.3116  210.3443   31.0458 O.3     217      M_A    0.0000
   1523 H         128.1266  210.1729   29.9128 H       217      M_A    0.0000
   1524 H         127.3796  210.9801   31.2974 H       217      M_A    0.0000
   1525 H         129.3410  211.9094   32.0444 H       217      M_A    0.0000
   1526 H         129.9350  212.2560   30.4266 H       217      M_A    0.0000
   1527 C         130.0673  209.5204   32.1676 C.3     218      M_A    0.0000
   1528 C         130.4765  208.0721   31.9161 C.3     218      M_A    0.0000
   1529 O         129.3811  207.1918   32.1671 O.3     218      M_A    0.0000
   1530 H         129.0085  209.5906   32.4388 H       218      M_A    0.0000
   1531 H         130.6514  209.9131   33.0077 H       218      M_A    0.0000
   1532 H         131.3484  207.8115   32.5332 H       218      M_A    0.0000
   1533 H         130.7829  207.9262   30.8727 H       218      M_A    0.0000
   1534 C         129.8058  205.8461   32.2426 C.3     219      M_A    0.0000
   1535 C         128.8676  204.9948   33.0929 C.3     219      M_A    0.0000
   1536 O         129.6129  204.0876   33.9051 O.3     219      M_A    0.0000
   1537 H         130.8291  205.8157   32.6318 H       219      M_A    0.0000
   1538 H         129.8264  205.4416   31.2242 H       219      M_A    0.0000
   1539 H         128.1523  204.4613   32.4506 H       219      M_A    0.0000
   1540 H         128.2693  205.6222   33.7654 H       219      M_A    0.0000
   1541 C         130.6536  203.4732   33.1728 C.3     220      M_A    0.0000
   1542 C         130.4865  201.9584   33.0985 C.3     220      M_A    0.0000
   1543 O         131.1748  201.3254   34.1772 O.3     220      M_A    0.0000
   1544 H         131.6149  203.7433   33.6229 H       220      M_A    0.0000
   1545 H         130.6371  203.8820   32.1560 H       220      M_A    0.0000
   1546 H         130.8381  201.5851   32.1259 H       220      M_A    0.0000
   1547 H         129.4289  201.6760   33.1729 H       220      M_A    0.0000
   1548 C         130.3957  200.2983   34.7560 C.3     221      M_A    0.0000
   1549 C         131.0840  199.6661   35.9622 C.3     221      M_A    0.0000
   1550 O         130.7931  198.2702   36.0297 O.3     221      M_A    0.0000
   1551 H         130.1695  199.5474   33.9915 H       221      M_A    0.0000
   1552 H         129.4456  200.7381   35.0802 H       221      M_A    0.0000
   1553 H         130.7826  200.1825   36.8849 H       221      M_A    0.0000
   1554 H         132.1739  199.7716   35.8921 H       221      M_A    0.0000
   1555 C         130.3007  197.9055   37.3031 C.3     222      M_A    0.0000
   1556 C         131.4220  197.5201   38.2634 C.3     222      M_A    0.0000
   1557 O         130.9366  196.6298   39.2682 O.3     222      M_A    0.0000
   1558 H         129.5811  197.0880   37.1872 H       222      M_A    0.0000
   1559 H         129.7613  198.7661   37.7149 H       222      M_A    0.0000
   1560 H         131.8667  198.4217   38.7089 H       222      M_A    0.0000
   1561 H         132.2336  197.0061   37.7333 H       222      M_A    0.0000
   1562 C         131.4855  196.9311   40.5350 C.3     223      M_A    0.0000
   1563 C         133.0034  197.0764   40.4832 C.3     223      M_A    0.0000
   1564 O         133.5670  196.9078   41.7839 O.3     223      M_A    0.0000
   1565 H         131.1868  196.1548   41.2476 H       223      M_A    0.0000
   1566 H         131.0500  197.8779   40.8745 H       223      M_A    0.0000
   1567 H         133.2769  198.0503   40.0521 H       223      M_A    0.0000
   1568 H         133.4487  196.3148   39.8309 H       223      M_A    0.0000
   1569 C         133.9972  198.1403   42.3249 C.3     224      M_A    0.0000
   1570 C         135.4390  198.0779   42.8203 C.3     224      M_A    0.0000
   1571 O         135.5855  198.8225   44.0294 O.3     224      M_A    0.0000
   1572 H         133.3151  198.4348   43.1297 H       224      M_A    0.0000
   1573 H         133.9258  198.8979   41.5361 H       224      M_A    0.0000
   1574 H         136.1241  198.4419   42.0411 H       224      M_A    0.0000
   1575 H         135.7365  197.0435   43.0334 H       224      M_A    0.0000
   1576 C         136.9286  199.2076   44.2402 C.3     225      M_A    0.0000
   1577 C         137.1837  199.6353   45.6825 C.3     225      M_A    0.0000
   1578 O         137.8745  200.8840   45.7195 O.3     225      M_A    0.0000
   1579 H         137.1849  200.0089   43.5391 H       225      M_A    0.0000
   1580 H         137.5664  198.3470   44.0076 H       225      M_A    0.0000
   1581 H         137.7420  198.8534   46.2172 H       225      M_A    0.0000
   1582 H         136.2396  199.7660   46.2260 H       225      M_A    0.0000
   1583 C         138.9940  200.8304   46.5801 C.3     226      M_A    0.0000
   1584 C         139.1431  202.1033   47.4081 C.3     226      M_A    0.0000
   1585 O         140.5224  202.4211   47.5937 O.3     226      M_A    0.0000
   1586 H         139.8933  200.6383   45.9852 H       226      M_A    0.0000
   1587 H         138.8574  199.9803   47.2583 H       226      M_A    0.0000
   1588 H         138.6253  201.9921   48.3717 H       226      M_A    0.0000
   1589 H         138.6743  202.9572   46.9033 H       226      M_A    0.0000
   1590 C         141.0889  201.6700   48.6480 C.3     227      M_A    0.0000
   1591 C         142.1272  202.4697   49.4294 C.3     227      M_A    0.0000
   1592 O         143.3436  201.7317   49.5457 O.3     227      M_A    0.0000
   1593 H         141.5231  200.7514   48.2392 H       227      M_A    0.0000
   1594 H         140.2796  201.3800   49.3279 H       227      M_A    0.0000
   1595 H         141.7300  202.7443   50.4172 H       227      M_A    0.0000
   1596 H         142.3622  203.4121   48.9191 H       227      M_A    0.0000
   1597 C         143.9810  201.9769   50.7828 C.3     228      M_A    0.0000
   1598 C         145.4965  202.0783   50.6377 C.3     228      M_A    0.0000
   1599 O         146.1485  201.4195   51.7234 O.3     228      M_A    0.0000
   1600 H         143.7035  201.1883   51.4903 H       228      M_A    0.0000
   1601 H         143.5983  202.9254   51.1769 H       228      M_A    0.0000
   1602 H         145.8015  203.1324   50.5685 H       228      M_A    0.0000
   1603 H         145.8351  201.5982   49.7111 H       228      M_A    0.0000
   1604 C         146.1871  202.2362   52.8759 C.3     229      M_A    0.0000
   1605 C         147.1694  201.7114   53.9189 C.3     229      M_A    0.0000
   1606 O         146.4953  200.8917   54.8735 O.3     229      M_A    0.0000
   1607 H         145.1766  202.3176   53.2903 H       229      M_A    0.0000
   1608 H         146.5005  203.2401   52.5672 H       229      M_A    0.0000
   1609 H         147.6885  202.5490   54.4067 H       229      M_A    0.0000
   1610 H         147.9485  201.0971   53.4503 H       229      M_A    0.0000
   1611 C         147.3514  199.8969   55.3974 C.3     230      M_A    0.0000
   1612 C         146.6492  199.0211   56.4308 C.3     230      M_A    0.0000
   1613 O         147.1307  199.3116   57.7430 O.3     230      M_A    0.0000
   1614 H         148.2386  200.3773   55.8236 H       230      M_A    0.0000
   1615 H         147.6838  199.2660   54.5651 H       230      M_A    0.0000
   1616 H         146.7832  197.9586   56.1818 H       230      M_A    0.0000
   1617 H         145.5674  199.2037   56.4300 H       230      M_A    0.0000
   1618 C         146.4871  198.5164   58.7178 C.3     231      M_A    0.0000
   1619 C         147.0024  198.8040   60.1249 C.3     231      M_A    0.0000
   1620 O         146.9943  197.6143   60.9138 O.3     231      M_A    0.0000
   1621 H         146.6148  197.4600   58.4584 H       231      M_A    0.0000
   1622 H         145.4147  198.7396   58.6804 H       231      M_A    0.0000
   1623 H         146.4037  199.5985   60.5932 H       231      M_A    0.0000
   1624 H         148.0354  199.1727   60.0970 H       231      M_A    0.0000
   1625 C         148.0001  197.6448   61.9059 C.3     232      M_A    0.0000
   1626 C         147.6319  196.8013   63.1229 C.3     232      M_A    0.0000
   1627 O         147.1609  197.6324   64.1838 O.3     232      M_A    0.0000
   1628 H         148.1911  198.6853   62.1893 H       232      M_A    0.0000
   1629 H         148.9211  197.2471   61.4644 H       232      M_A    0.0000
   1630 H         148.4938  196.1972   63.4408 H       232      M_A    0.0000
   1631 H         146.8307  196.0918   62.8810 H       232      M_A    0.0000
   1632 C         146.9671  196.8934   65.3726 C.3     233      M_A    0.0000
   1633 C         146.4753  197.7705   66.5202 C.3     233      M_A    0.0000
   1634 O         147.0091  197.3142   67.7631 O.3     233      M_A    0.0000
   1635 H         147.9021  196.3868   65.6348 H       233      M_A    0.0000
   1636 H         146.2168  196.1204   65.1704 H       233      M_A    0.0000
   1637 H         145.3761  197.7888   66.5397 H       233      M_A    0.0000
   1638 H         146.7985  198.8103   66.3859 H       233      M_A    0.0000
   1639 C         147.1779  195.9113   67.7696 C.3     234      M_A    0.0000
   1640 C         146.4666  195.2528   68.9480 C.3     234      M_A    0.0000
   1641 O         147.4087  194.6055   69.8031 O.3     234      M_A    0.0000
   1642 H         148.2485  195.6802   67.7749 H       234      M_A    0.0000
   1643 H         146.7584  195.5170   66.8370 H       234      M_A    0.0000
   1644 H         145.7050  194.5474   68.5855 H       234      M_A    0.0000
   1645 H         145.9336  195.9984   69.5512 H       234      M_A    0.0000
   1646 C         147.3074  193.1989   69.7134 C.3     235      M_A    0.0000
   1647 C         147.7617  192.5077   70.9955 C.3     235      M_A    0.0000
   1648 O         148.5739  191.3736   70.6919 O.3     235      M_A    0.0000
   1649 H         147.8873  192.8531   68.8510 H       235      M_A    0.0000
   1650 H         146.2567  192.9479   69.5284 H       235      M_A    0.0000
   1651 H         146.8902  192.2242   71.6031 H       235      M_A    0.0000
   1652 H         148.3621  193.1852   71.6153 H       235      M_A    0.0000
   1653 C         149.1641  190.8334   71.8566 C.3     236      M_A    0.0000
   1654 C         149.8698  189.5089   71.5813 C.3     236      M_A    0.0000
   1655 O         149.1354  188.4234   72.1472 O.3     236      M_A    0.0000
   1656 H         148.3941  190.7184   72.6270 H       236      M_A    0.0000
   1657 H         149.8993  191.5563   72.2282 H       236      M_A    0.0000
   1658 H         150.8989  189.5397   71.9672 H       236      M_A    0.0000
   1659 H         149.9507  189.3239   70.5028 H       236      M_A    0.0000
   1660 C         149.5165  187.1880   71.5768 C.3     237      M_A    0.0000
   1661 C         149.2391  186.0142   72.5113 C.3     237      M_A    0.0000
   1662 O         150.4354  185.2741   72.7541 O.3     237      M_A    0.0000
   1663 H         150.5758  187.2328   71.3021 H       237      M_A    0.0000
   1664 H         148.9405  187.0507   70.6545 H       237      M_A    0.0000
   1665 H         148.4505  185.3731   72.0916 H       237      M_A    0.0000
   1666 H         148.8670  186.3647   73.4821 H       237      M_A    0.0000
   1667 C         151.2433  185.2028   71.5969 C.3     238      M_A    0.0000
   1668 C         152.1129  183.9491   71.5801 C.3     238      M_A    0.0000
   1669 O         153.4543  184.2654   71.9520 O.3     238      M_A    0.0000
   1670 H         151.8549  186.1090   71.5317 H       238      M_A    0.0000
   1671 H         150.5809  185.1866   70.7239 H       238      M_A    0.0000
   1672 H         152.0741  183.4736   70.5895 H       238      M_A    0.0000
   1673 H         151.7410  183.2038   72.2943 H       238      M_A    0.0000
   1674 C         154.2328  183.0984   72.1218 C.3     239      M_A    0.0000
   1675 C         155.7283  183.3881   72.0343 C.3     239      M_A    0.0000
   1676 O         156.4095  182.3124   71.3888 O.3     239      M_A    0.0000
   1677 H         153.9299  182.3552   71.3765 H       239      M_A    0.0000
   1678 H         154.0090  182.6851   73.1119 H       239      M_A    0.0000
   1679 H         156.1377  183.5761   73.0373 H       239      M_A    0.0000
   1680 H         155.9187  184.2961   71.4486 H       239      M_A    0.0000
   1681 C         157.7028  182.6970   70.9689 C.3     240      M_A    0.0000
   1682 C         158.7974  181.9355   71.7107 C.3     240      M_A    0.0000
   1683 O         159.5736  182.8275   72.5104 O.3     240      M_A    0.0000
   1684 H         157.8146  183.7784   71.1011 H       240      M_A    0.0000
   1685 H         157.7865  182.4837   69.8971 H       240      M_A    0.0000
   1686 H         159.4283  181.3865   70.9968 H       240      M_A    0.0000
   1687 H         158.3659  181.1830   72.3825 H       240      M_A    0.0000
   1688 C         160.6414  182.1554   73.1469 C.3     241      M_A    0.0000
   1689 C         161.5484  183.1141   73.9126 C.3     241      M_A    0.0000
   1690 O         162.9197  182.7682   73.7187 O.3     241      M_A    0.0000
   1691 H         161.2060  181.5910   72.3971 H       241      M_A    0.0000
   1692 H         160.2129  181.4336   73.8517 H       241      M_A    0.0000
   1693 H         161.2835  183.1164   74.9798 H       241      M_A    0.0000
   1694 H         161.4166  184.1448   73.5603 H       241      M_A    0.0000
   1695 C         163.6657  182.9244   74.9086 C.3     242      M_A    0.0000
   1696 C         165.1567  183.0953   74.6333 C.3     242      M_A    0.0000
   1697 O         165.8799  181.9404   75.0586 O.3     242      M_A    0.0000
   1698 H         163.4804  182.0652   75.5620 H       242      M_A    0.0000
   1699 H         163.2955  183.8183   75.4236 H       242      M_A    0.0000
   1700 H         165.5315  184.0050   75.1242 H       242      M_A    0.0000
   1701 H         165.3455  183.2243   73.5602 H       242      M_A    0.0000
   1702 C         167.1668  181.8926   74.4769 C.3     243      M_A    0.0000
   1703 C         168.1368  181.0477   75.2975 C.3     243      M_A    0.0000
   1704 O         169.2561  181.8310   75.7116 O.3     243      M_A    0.0000
   1705 H         167.5407  182.9145   74.3521 H       243      M_A    0.0000
   1706 H         167.0692  181.4512   73.4785 H       243      M_A    0.0000
   1707 H         168.4561  180.1681   74.7200 H       243      M_A    0.0000
   1708 H         167.6524  180.6623   76.2033 H       243      M_A    0.0000
   1709 C         170.3913  181.0245   75.9517 C.3     244      M_A    0.0000
   1710 C         171.3194  181.6361   76.9971 C.3     244      M_A    0.0000
   1711 O         172.6846  181.3928   76.6580 O.3     244      M_A    0.0000
   1712 H         170.9173  180.8571   75.0058 H       244      M_A    0.0000
   1713 H         170.0424  180.0506   76.3138 H       244      M_A    0.0000
   1714 H         171.0789  181.2421   77.9950 H       244      M_A    0.0000
   1715 H         171.1838  182.7234   77.0543 H       244      M_A    0.0000
   1716 C         173.4374  181.0053   77.7893 C.3     245      M_A    0.0000
   1717 C         174.8612  181.5522   77.7462 C.3     245      M_A    0.0000
   1718 O         175.8089  180.4886   77.8380 O.3     245      M_A    0.0000
   1719 H         173.4357  179.9126   77.8625 H       245      M_A    0.0000
   1720 H         172.9336  181.3979   78.6800 H       245      M_A    0.0000
   1721 H         175.0089  182.2897   78.5483 H       245      M_A    0.0000
   1722 H         175.0505  182.0804   76.8034 H       245      M_A    0.0000
   1723 C         177.0908  180.8995   77.4081 C.3     246      M_A    0.0000
   1724 C         178.1068  180.8955   78.5465 C.3     246      M_A    0.0000
   1725 O         179.0874  181.9132   78.3457 O.3     246      M_A    0.0000
   1726 H         177.0133  181.8917   76.9509 H       246      M_A    0.0000
   1727 H         177.4255  180.2021   76.6317 H       246      M_A    0.0000
   1728 H         178.5725  179.9035   78.6360 H       246      M_A    0.0000
   1729 H         177.6189  181.0947   79.5088 H       246      M_A    0.0000
   1730 C         179.7711  182.2164   79.5447 C.3     247      M_A    0.0000
   1731 C         181.1961  182.6975   79.2872 C.3     247      M_A    0.0000
   1732 O         182.0421  182.3687   80.3891 O.3     247      M_A    0.0000
   1733 H         179.7630  181.3342   80.1936 H       247      M_A    0.0000
   1734 H         179.2162  183.0102   80.0576 H       247      M_A    0.0000
   1735 H         181.2013  183.7788   79.0877 H       247      M_A    0.0000
   1736 H         181.6173  182.2176   78.3950 H       247      M_A    0.0000
   1737 C         183.1508  183.2413   80.4682 C.3     248      M_A    0.0000
   1738 C         184.1457  182.8096   81.5415 C.3     248      M_A    0.0000
   1739 O         184.8367  183.9423   82.0680 O.3     248      M_A    0.0000
   1740 H         182.7916  184.2600   80.6490 H       248      M_A    0.0000
   1741 H         183.6545  183.2353   79.4948 H       248      M_A    0.0000
   1742 H         184.8469  182.0679   81.1327 H       248      M_A    0.0000
   1743 H         183.6324  182.3197   82.3784 H       248      M_A    0.0000
   1744 C         185.9238  184.3134   81.2450 C.3     249      M_A    0.0000
   1745 C         186.7322  185.4604   81.8442 C.3     249      M_A    0.0000
   1746 O         186.7330  186.5850   80.9649 O.3     249      M_A    0.0000
   1747 H         185.5465  184.5732   80.2502 H       249      M_A    0.0000
   1748 H         186.5763  183.4398   81.1343 H       249      M_A    0.0000
   1749 H         187.7558  185.1271   82.0679 H       249      M_A    0.0000
   1750 H         186.3000  185.7892   82.7976 H       249      M_A    0.0000
   1751 C         187.1020  187.7698   81.6409 C.3     250      M_A    0.0000
   1752 C         188.4320  188.3257   81.1407 C.3     250      M_A    0.0000
   1753 O         189.2858  188.6450   82.2393 O.3     250      M_A    0.0000
   1754 H         187.1364  187.5712   82.7174 H       250      M_A    0.0000
   1755 H         186.3180  188.5156   81.4663 H       250      M_A    0.0000
   1756 H         188.2600  189.2025   80.5000 H       250      M_A    0.0000
   1757 H         188.9570  187.5888   80.5201 H       250      M_A    0.0000
   1758 C         188.5452  189.0889   83.3580 C.3     251      M_A    0.0000
   1759 C         189.0716  190.4116   83.9069 C.3     251      M_A    0.0000
   1760 O         190.1064  190.1805   84.8627 O.3     251      M_A    0.0000
   1761 H         188.5573  188.3090   84.1268 H       251      M_A    0.0000
   1762 H         187.5050  189.2255   83.0408 H       251      M_A    0.0000
   1763 H         188.2485  190.9963   84.3423 H       251      M_A    0.0000
   1764 H         189.4968  191.0280   83.1051 H       251      M_A    0.0000
   1765 C         190.3575  191.3322   85.6420 C.3     252      M_A    0.0000
   1766 C         191.7081  191.9629   85.3159 C.3     252      M_A    0.0000
   1767 O         192.6108  191.8066   86.4107 O.3     252      M_A    0.0000
   1768 H         190.2905  191.0677   86.7026 H       252      M_A    0.0000
   1769 H         189.5660  192.0606   85.4314 H       252      M_A    0.0000
   1770 H         191.5785  193.0225   85.0526 H       252      M_A    0.0000
   1771 H         192.1652  191.4820   84.4420 H       252      M_A    0.0000
   1772 C         193.9516  191.9955   86.0065 C.3     253      M_A    0.0000
   1773 C         194.6195  193.1468   86.7527 C.3     253      M_A    0.0000
   1774 O         195.5307  193.8361   85.8969 O.3     253      M_A    0.0000
   1775 H         193.9790  192.1576   84.9237 H       253      M_A    0.0000
   1776 H         194.5006  191.0706   86.2172 H       253      M_A    0.0000
   1777 H         195.1239  192.7722   87.6551 H       253      M_A    0.0000
   1778 H         193.8754  193.8762   87.0960 H       253      M_A    0.0000
   1779 C         195.5660  195.2189   86.1857 C.3     254      M_A    0.0000
   1780 C         196.5931  195.9576   85.3327 C.3     254      M_A    0.0000
   1781 O         197.5258  196.6514   86.1613 O.3     254      M_A    0.0000
   1782 H         195.7671  195.3559   87.2536 H       254      M_A    0.0000
   1783 H         194.5717  195.6317   85.9801 H       254      M_A    0.0000
   1784 H         196.0869  196.6440   84.6387 H       254      M_A    0.0000
   1785 H         197.1641  195.2566   84.7110 H       254      M_A    0.0000
   1786 C         198.2132  197.6533   85.4397 C.3     255      M_A    0.0000
   1787 C         198.8004  197.1210   84.1358 C.3     255      M_A    0.0000
   1788 O         199.7642  198.0343   83.6114 O.3     255      M_A    0.0000
   1789 H         198.9927  198.0824   86.0782 H       255      M_A    0.0000
   1790 H         197.4988  198.4513   85.2071 H       255      M_A    0.0000
   1791 H         197.9979  196.9260   83.4099 H       255      M_A    0.0000
   1792 H         199.3096  196.1627   84.2969 H       255      M_A    0.0000
   1793 C         199.1456  199.0882   82.9019 C.3     256      M_A    0.0000
   1794 C         200.1501  200.1452   82.4526 C.3     256      M_A    0.0000
   1795 O         199.7222  201.4459   82.8565 O.3     256      M_A    0.0000
   1796 H         198.3616  199.5283   83.5274 H       256      M_A    0.0000
   1797 H         198.6617  198.6599   82.0165 H       256      M_A    0.0000
   1798 H         200.2955  200.0922   81.3641 H       256      M_A    0.0000
   1799 H         201.1343  199.9683   82.9039 H       256      M_A    0.0000
   1800 C         200.0346  202.4192   81.8808 C.3     257      M_A    0.0000
   1801 C         201.4735  202.2971   81.3882 C.3     257      M_A    0.0000
   1802 O         202.0750  203.5868   81.2751 O.3     257      M_A    0.0000
   1803 H         199.8416  203.4147   82.2946 H       257      M_A    0.0000
   1804 H         199.3559  202.2757   81.0322 H       257      M_A    0.0000
   1805 H         201.5023  201.7571   80.4308 H       257      M_A    0.0000
   1806 H         202.0805  201.7119   82.0902 H       257      M_A    0.0000
   1807 C         202.9556  203.6519   80.1718 C.3     258      M_A    0.0000
   1808 C         203.5035  205.0596   79.9568 C.3     258      M_A    0.0000
   1809 O         203.5723  205.3625   78.5634 O.3     258      M_A    0.0000
   1810 H         202.4363  203.2891   79.2783 H       258      M_A    0.0000
   1811 H         203.7924  202.9718   80.3679 H       258      M_A    0.0000
   1812 H         204.4873  205.1614   80.4372 H       258      M_A    0.0000
   1813 H         202.8534  205.8096   80.4243 H       258      M_A    0.0000
   1814 C         204.7026  206.1551   78.2617 C.3     259      M_A    0.0000
   1815 C         204.9462  207.2321   79.3146 C.3     259      M_A    0.0000
   1816 O         205.9493  208.1466   78.8724 O.3     259      M_A    0.0000
   1817 H         204.5746  206.5961   77.2673 H       259      M_A    0.0000
   1818 H         205.5763  205.4946   78.2213 H       259      M_A    0.0000
   1819 H         205.2213  206.7700   80.2737 H       259      M_A    0.0000
   1820 H         204.0335  207.8113   79.5023 H       259      M_A    0.0000
   1821 C         207.2475  207.6725   79.1673 C.3     260      M_A    0.0000
   1822 C         207.5257  207.6557   80.6674 C.3     260      M_A    0.0000
   1823 O         208.8984  207.9508   80.9252 O.3     260      M_A    0.0000
   1824 H         207.9817  208.2874   78.6359 H       260      M_A    0.0000
   1825 H         207.3290  206.6504   78.7801 H       260      M_A    0.0000
   1826 H         207.2380  206.6849   81.0959 H       260      M_A    0.0000
   1827 H         206.9240  208.4121   81.1867 H       260      M_A    0.0000
   1828 C         209.1969  209.3044   80.6507 C.3     261      M_A    0.0000
   1829 C         210.3954  209.4503   79.7178 C.3     261      M_A    0.0000
   1830 O         211.6146  209.2623   80.4362 O.3     261      M_A    0.0000
   1831 H         209.3648  209.8321   81.5956 H       261      M_A    0.0000
   1832 H         208.3186  209.7529   80.1723 H       261      M_A    0.0000
   1833 H         210.3717  210.4304   79.2199 H       261      M_A    0.0000
   1834 H         210.3653  208.6984   78.9194 H       261      M_A    0.0000
   1835 C         212.4978  208.4058   79.7410 C.3     262      M_A    0.0000
   1836 C         213.3278  207.5451   80.6889 C.3     262      M_A    0.0000
   1837 O         214.7045  207.5709   80.3123 O.3     262      M_A    0.0000
   1838 H         213.1397  209.0075   79.0889 H       262      M_A    0.0000
   1839 H         211.8968  207.7498   79.1009 H       262      M_A    0.0000
   1840 H         212.9377  206.5173   80.7081 H       262      M_A    0.0000
   1841 H         213.2617  207.9190   81.7182 H       262      M_A    0.0000
   1842 C         215.2559  206.2703   80.2784 C.3     263      M_A    0.0000
   1843 C         216.7629  206.2791   80.5173 C.3     263      M_A    0.0000
   1844 O         217.4660  206.1299   79.2839 O.3     263      M_A    0.0000
   1845 H         215.0105  205.8030   79.3188 H       263      M_A    0.0000
   1846 H         214.7754  205.6799   81.0670 H       263      M_A    0.0000
   1847 H         217.0384  205.4908   81.2325 H       263      M_A    0.0000
   1848 H         217.0837  207.2278   80.9655 H       263      M_A    0.0000
   1849 C         218.6845  205.4373   79.4637 C.3     264      M_A    0.0000
   1850 C         219.4413  205.9180   80.6983 C.3     264      M_A    0.0000
   1851 O         220.6601  206.5581   80.3205 O.3     264      M_A    0.0000
   1852 H         219.2935  205.5451   78.5598 H       264      M_A    0.0000
   1853 H         218.4527  204.3726   79.5821 H       264      M_A    0.0000
   1854 H         219.6266  205.0765   81.3813 H       264      M_A    0.0000
   1855 H         218.8481  206.6481   81.2629 H       264      M_A    0.0000
   1856 C         221.3768  205.7894   79.3759 C.3     265      M_A    0.0000
   1857 C         222.8151  205.5337   79.8163 C.3     265      M_A    0.0000
   1858 O         223.7230  206.3132   79.0379 O.3     265      M_A    0.0000
   1859 H         221.3447  206.2954   78.4051 H       265      M_A    0.0000
   1860 H         220.8635  204.8273   79.2653 H       265      M_A    0.0000
   1861 H         223.0481  204.4613   79.7475 H       265      M_A    0.0000
   1862 H         222.9595  205.8135   80.8673 H       265      M_A    0.0000
   1863 C         225.0209  205.7544   79.0435 C.3     266      M_A    0.0000
   1864 C         225.4895  205.4050   80.4529 C.3     266      M_A    0.0000
   1865 O         226.9154  205.3713   80.5123 O.3     266      M_A    0.0000
   1866 H         225.7123  206.4517   78.5585 H       266      M_A    0.0000
   1867 H         224.9963  204.8391   78.4410 H       266      M_A    0.0000
   1868 H         225.0532  204.4473   80.7714 H       266      M_A    0.0000
   1869 H         225.1482  206.1550   81.1773 H       266      M_A    0.0000
   1870 C         227.4472  204.4067   79.6270 C.3     267      M_A    0.0000
   1871 C         228.9528  204.5682   79.4391 C.3     267      M_A    0.0000
   1872 O         229.2873  204.5637   78.0513 O.3     267      M_A    0.0000
   1873 H         226.9201  204.4717   78.6692 H       267      M_A    0.0000
   1874 H         227.2469  203.4152   80.0490 H       267      M_A    0.0000
   1875 H         229.4900  203.7776   79.9825 H       267      M_A    0.0000
   1876 H         229.3008  205.5208   79.8578 H       267      M_A    0.0000
   1877 C         230.5639  204.0000   77.8288 C.3     268      M_A    0.0000
   1878 C         231.3819  204.8088   76.8265 C.3     268      M_A    0.0000
   1879 O         232.3678  203.9848   76.2044 O.3     268      M_A    0.0000
   1880 H         230.4437  202.9635   77.4961 H       268      M_A    0.0000
   1881 H         231.0955  203.9809   78.7871 H       268      M_A    0.0000
   1882 H         231.8409  205.6758   77.3231 H       268      M_A    0.0000
   1883 H         230.7419  205.2120   76.0319 H       268      M_A    0.0000
   1884 C         233.4915  203.8012   77.0414 C.3     269      M_A    0.0000
   1885 C         234.5514  202.9153   76.3935 C.3     269      M_A    0.0000
   1886 O         235.1405  202.0490   77.3633 O.3     269      M_A    0.0000
   1887 H         233.1597  203.3851   77.9987 H       269      M_A    0.0000
   1888 H         233.9272  204.7868   77.2416 H       269      M_A    0.0000
   1889 H         235.3116  203.5348   75.8964 H       269      M_A    0.0000
   1890 H         234.1107  202.2829   75.6128 H       269      M_A    0.0000
   1891 C         236.4795  201.7391   77.0343 C.3     270      M_A    0.0000
   1892 C         236.9779  200.4969   77.7670 C.3     270      M_A    0.0000
   1893 O         238.2630  200.7361   78.3406 O.3     270      M_A    0.0000
   1894 H         237.1111  202.6068   77.2526 H       270      M_A    0.0000
   1895 H         236.5278  201.5572   75.9546 H       270      M_A    0.0000
   1896 H         236.9991  199.6360   77.0833 H       270      M_A    0.0000
   1897 H         236.2988  200.2244   78.5845 H       270      M_A    0.0000
   1898 C         238.9009  199.5282   78.7023 C.3     271      M_A    0.0000
   1899 C         240.3104  199.7613   79.2381 C.3     271      M_A    0.0000
   1900 O         241.2839  199.4124   78.2540 O.3     271      M_A    0.0000
   1901 H         238.9129  198.8573   77.8368 H       271      M_A    0.0000
   1902 H         238.2991  199.0502   79.4838 H       271      M_A    0.0000
   1903 H         240.4613  199.1948   80.1683 H       271      M_A    0.0000
   1904 H         240.4641  200.8175   79.4922 H       271      M_A    0.0000
   1905 C         242.4494  198.8765   78.8467 C.3     272      M_A    0.0000
   1906 C         243.7164  199.5627   78.3447 C.3     272      M_A    0.0000
   1907 O         244.6285  198.6021   77.8125 O.3     272      M_A    0.0000
   1908 H         242.4827  197.7982   78.6583 H       272      M_A    0.0000
   1909 H         242.3734  199.0214   79.9305 H       272      M_A    0.0000
   1910 H         244.1778  200.1467   79.1540 H       272      M_A    0.0000
   1911 H         243.4855  200.2756   77.5433 H       272      M_A    0.0000
   1912 C         244.9693  197.6244   78.7741 C.3     273      M_A    0.0000
   1913 C         246.3653  197.0535   78.5426 C.3     273      M_A    0.0000
   1914 O         246.3424  196.0856   77.4935 O.3     273      M_A    0.0000
   1915 H         244.2120  196.8333   78.7635 H       273      M_A    0.0000
   1916 H         244.9395  198.0984   79.7619 H       273      M_A    0.0000
   1917 H         246.7589  196.6235   79.4748 H       273      M_A    0.0000
   1918 H         247.0679  197.8424   78.2464 H       273      M_A    0.0000
   1919 C         245.0420  195.9280   76.9635 C.3     274      M_A    0.0000
   1920 C         245.0479  195.1540   75.6485 C.3     274      M_A    0.0000
   1921 O         245.4872  195.9898   74.5778 O.3     274      M_A    0.0000
   1922 H         244.5847  196.9154   76.8390 H       274      M_A    0.0000
   1923 H         244.4437  195.3757   77.6972 H       274      M_A    0.0000
   1924 H         244.0497  194.7389   75.4480 H       274      M_A    0.0000
   1925 H         245.7328  194.2984   75.6996 H       274      M_A    0.0000
   1926 C         246.8964  195.9987   74.4733 C.3     275      M_A    0.0000
   1927 C         247.3758  195.4588   73.1292 C.3     275      M_A    0.0000
   1928 O         248.3677  194.4501   73.3200 O.3     275      M_A    0.0000
   1929 H         247.3199  195.4240   75.3039 H       275      M_A    0.0000
   1930 H         247.2357  197.0354   74.5805 H       275      M_A    0.0000
   1931 H         247.7556  196.2798   72.5041 H       275      M_A    0.0000
   1932 H         246.5480  195.0042   72.5709 H       275      M_A    0.0000
   1933 C         249.5444  194.9834   73.8925 C.3     276      M_A    0.0000
   1934 C         250.7061  193.9955   73.8423 C.3     276      M_A    0.0000
   1935 O         251.5589  194.1678   74.9741 O.3     276      M_A    0.0000
   1936 H         249.3327  195.2927   74.9216 H       276      M_A    0.0000
   1937 H         249.8177  195.8812   73.3263 H       276      M_A    0.0000
   1938 H         251.2625  194.1115   72.9011 H       276      M_A    0.0000
   1939 H         250.3423  192.9605   73.8597 H       276      M_A    0.0000
   1940 C         252.8604  193.6796   74.7201 C.3     277      M_A    0.0000
   1941 C         252.8402  192.2811   74.1103 C.3     277      M_A    0.0000
   1942 O         254.0210  191.5625   74.4670 O.3     277      M_A    0.0000
   1943 H         253.4365  193.6965   75.6515 H       277      M_A    0.0000
   1944 H         253.3466  194.3659   74.0173 H       277      M_A    0.0000
   1945 H         252.7253  192.3447   73.0187 H       277      M_A    0.0000
   1946 H         251.9816  191.7051   74.4774 H       277      M_A    0.0000
   1947 C         253.9422  190.2086   74.0700 C.3     278      M_A    0.0000
   1948 C         255.2574  189.4677   74.2920 C.3     278      M_A    0.0000
   1949 O         255.9911  189.3736   73.0711 O.3     278      M_A    0.0000
   1950 H         253.6342  190.1614   73.0201 H       278      M_A    0.0000
   1951 H         253.1591  189.7274   74.6671 H       278      M_A    0.0000
   1952 H         255.0654  188.4736   74.7208 H       278      M_A    0.0000
   1953 H         255.8896  189.9981   75.0151 H       278      M_A    0.0000
   1954 C         256.6637  188.1352   72.9659 C.3     279      M_A    0.0000
   1955 C         257.4200  187.7824   74.2433 C.3     279      M_A    0.0000
   1956 O         258.7332  187.3153   73.9346 O.3     279      M_A    0.0000
   1957 H         257.3378  188.1668   72.1033 H       279      M_A    0.0000
   1958 H         255.9137  187.3598   72.7722 H       279      M_A    0.0000
   1959 H         256.8570  187.0377   74.8242 H       279      M_A    0.0000
   1960 H         257.5277  188.6612   74.8912 H       279      M_A    0.0000
   1961 C         259.5563  188.3618   73.4612 C.3     280      M_A    0.0000
   1962 C         261.0121  187.9274   73.3183 C.3     280      M_A    0.0000
   1963 O         261.6912  188.0337   74.5695 O.3     280      M_A    0.0000
   1964 H         259.4644  189.2210   74.1340 H       280      M_A    0.0000
   1965 H         259.1798  188.6685   72.4786 H       280      M_A    0.0000
   1966 H         261.5112  188.5230   72.5405 H       280      M_A    0.0000
   1967 H         261.0796  186.8809   72.9958 H       280      M_A    0.0000
   1968 C         260.8065  187.8477   75.6556 C.3     281      M_A    0.0000
   1969 C         261.0415  186.5181   76.3663 C.3     281      M_A    0.0000
   1970 O         259.8024  185.9540   76.7953 O.3     281      M_A    0.0000
   1971 H         259.7755  187.9259   75.2942 H       281      M_A    0.0000
   1972 H         260.9709  188.6643   76.3678 H       281      M_A    0.0000
   1973 H         261.7318  186.6561   77.2109 H       281      M_A    0.0000
   1974 H         261.5176  185.7927   75.6947 H       281      M_A    0.0000
   1975 C         259.0352  185.4972   75.7001 C.3     282      M_A    0.0000
   1976 C         258.7378  184.0033   75.7906 C.3     282      M_A    0.0000
   1977 O         259.6149  183.2659   74.9393 O.3     282      M_A    0.0000
   1978 H         259.5602  185.7400   74.7700 H       282      M_A    0.0000
   1979 H         258.0876  186.0479   75.6993 H       282      M_A    0.0000
   1980 H         257.6841  183.8105   75.5426 H       282      M_A    0.0000
   1981 H         258.8860  183.6348   76.8134 H       282      M_A    0.0000
   1982 C         260.9385  183.2678   75.4340 C.3     283      M_A    0.0000
   1983 C         261.6998  182.0048   75.0421 C.3     283      M_A    0.0000
   1984 O         262.1328  181.3001   76.2056 O.3     283      M_A    0.0000
   1985 H         260.9133  183.3926   76.5218 H       283      M_A    0.0000
   1986 H         261.4546  184.1380   75.0125 H       283      M_A    0.0000
   1987 H         262.5478  182.2598   74.3903 H       283      M_A    0.0000
   1988 H         261.0611  181.3248   74.4648 H       283      M_A    0.0000
   1989 C         262.3847  179.9389   75.9220 C.3     284      M_A    0.0000
   1990 C         263.8655  179.5916   76.0430 C.3     284      M_A    0.0000
   1991 O         264.3557  179.0547   74.8144 O.3     284      M_A    0.0000
   1992 H         262.0045  179.7060   74.9216 H       284      M_A    0.0000
   1993 H         261.8190  179.3347   76.6405 H       284      M_A    0.0000
   1994 H         264.0245  178.8925   76.8766 H       284      M_A    0.0000
   1995 H         264.4606  180.4845   76.2719 H       284      M_A    0.0000
   1996 C         263.3454  178.3562   74.1157 C.3     285      M_A    0.0000
   1997 C         263.5835  176.8490   74.1170 C.3     285      M_A    0.0000
   1998 O         262.8712  176.2289   73.0466 O.3     285      M_A    0.0000
   1999 H         263.2829  178.7456   73.0939 H       285      M_A    0.0000
   2000 H         262.3889  178.5644   74.6088 H       285      M_A    0.0000
   2001 H         263.2979  176.4205   75.0885 H       285      M_A    0.0000
   2002 H         264.6476  176.6196   73.9799 H       285      M_A    0.0000
   2003 C         262.7629  174.8329   73.2375 C.3     286      M_A    0.0000
   2004 C         264.0915  174.2049   73.6481 C.3     286      M_A    0.0000
   2005 O         264.1257  172.8245   73.2858 O.3     286      M_A    0.0000
   2006 H         262.3762  174.3757   72.3205 H       286      M_A    0.0000
   2007 H         262.0275  174.6573   74.0310 H       286      M_A    0.0000
   2008 H         264.2577  174.3394   74.7267 H       286      M_A    0.0000
   2009 H         264.9315  174.6980   73.1432 H       286      M_A    0.0000
   2010 C         263.2077  172.0669   74.0477 C.3     287      M_A    0.0000
   2011 C         263.4757  170.5683   73.9455 C.3     287      M_A    0.0000
   2012 O         262.2565  169.8547   73.7401 O.3     287      M_A    0.0000
   2013 H         262.1897  172.3094   73.7247 H       287      M_A    0.0000
   2014 H         263.3051  172.3739   75.0953 H       287      M_A    0.0000
   2015 H         263.9996  170.2143   74.8450 H       287      M_A    0.0000
   2016 H         264.1343  170.3443   73.0971 H       287      M_A    0.0000
   2017 C         262.3745  168.5038   74.1378 C.3     288      M_A    0.0000
   2018 C         262.1591  167.5416   72.9734 C.3     288      M_A    0.0000
   2019 O         261.7113  166.2724   73.4493 O.3     288      M_A    0.0000
   2020 H         261.6660  168.3070   74.9495 H       288      M_A    0.0000
   2021 H         263.3847  168.3571   74.5368 H       288      M_A    0.0000
   2022 H         263.0830  167.4448   72.3852 H       288      M_A    0.0000
   2023 H         261.3944  167.9229   72.2853 H       288      M_A    0.0000
   2024 C         262.3920  165.8923   74.6278 C.3     289      M_A    0.0000
   2025 C         263.4724  164.8497   74.3560 C.3     289      M_A    0.0000
   2026 O         263.6801  164.0322   75.5077 O.3     289      M_A    0.0000
   2027 H         261.6635  165.5254   75.3587 H       289      M_A    0.0000
   2028 H         262.8620  166.7883   75.0494 H       289      M_A    0.0000
   2029 H         264.4041  165.3418   74.0417 H       289      M_A    0.0000
   2030 H         263.1803  164.1875   73.5315 H       289      M_A    0.0000
   2031 C         264.5274  164.6649   76.4451 C.3     290      M_A    0.0000
   2032 C         265.9557  164.8031   75.9264 C.3     290      M_A    0.0000
   2033 O         266.6333  163.5480   75.9860 O.3     290      M_A    0.0000
   2034 H         264.5009  164.1047   77.3858 H       290      M_A    0.0000
   2035 H         264.1239  165.6645   76.6432 H       290      M_A    0.0000
   2036 H         266.4931  165.5751   76.4956 H       290      M_A    0.0000
   2037 H         265.9631  165.1310   74.8795 H       290      M_A    0.0000
   2038 C         267.1304  163.2896   77.2833 C.3     291      M_A    0.0000
   2039 C         268.1264  162.1338   77.2969 C.3     291      M_A    0.0000
   2040 O         267.4419  160.8842   77.3849 O.3     291      M_A    0.0000
   2041 H         266.2886  163.0939   77.9561 H       291      M_A    0.0000
   2042 H         267.6343  164.1961   77.6379 H       291      M_A    0.0000
   2043 H         268.8403  162.2578   78.1238 H       291      M_A    0.0000
   2044 H         268.7219  162.1179   76.3755 H       291      M_A    0.0000
   2045 C         267.0147  160.4378   76.1140 C.3     292      M_A    0.0000
   2046 C         265.8063  161.2194   75.6072 C.3     292      M_A    0.0000
   2047 O         265.2939  160.6294   74.4125 O.3     292      M_A    0.0000
   2048 H         266.7984  159.3654   76.1661 H       292      M_A    0.0000
   2049 H         267.8453  160.5747   75.4121 H       292      M_A    0.0000
   2050 H         266.0753  162.2737   75.4489 H       292      M_A    0.0000
   2051 H         264.9974  161.2158   76.3484 H       292      M_A    0.0000
   2052 H         265.6799  161.0448   73.6132 H       292      M_A    0.0000
   2053 H         181.6840  157.3111   34.8099 H         0      M_A    0.0000
@<TRIPOS>BOND
     1     1     2      1
     2     1     4      1
     3     1     5      1
     4     1  2053      1
     5     2     3      1
     6     2     6      1
     7     2     7      1
     8     3     8      1
     9     8     9      1
    10     8    11      1
    11     8    12      1
    12     9    10      1
    13     9    13      1
    14     9    14      1
    15    10    15      1
    16    15    16      1
    17    15    18      1
    18    15    19      1
    19    16    17      1
    20    16    20      1
    21    16    21      1
    22    17    22      1
    23    22    23      1
    24    22    25      1
    25    22    26      1
    26    23    24      1
    27    23    27      1
    28    23    28      1
    29    24    29      1
    30    29    30      1
    31    29    32      1
    32    29    33      1
    33    30    31      1
    34    30    34      1
    35    30    35      1
    36    31    36      1
    37    36    37      1
    38    36    39      1
    39    36    40      1
    40    37    38      1
    41    37    41      1
    42    37    42      1
    43    38    43      1
    44    43    44      1
    45    43    46      1
    46    43    47      1
    47    44    45      1
    48    44    48      1
    49    44    49      1
    50    45    50      1
    51    50    51      1
    52    50    53      1
    53    50    54      1
    54    51    52      1
    55    51    55      1
    56    51    56      1
    57    52    57      1
    58    57    58      1
    59    57    60      1
    60    57    61      1
    61    58    59      1
    62    58    62      1
    63    58    63      1
    64    59    64      1
    65    64    65      1
    66    64    67      1
    67    64    68      1
    68    65    66      1
    69    65    69      1
    70    65    70      1
    71    66    71      1
    72    71    72      1
    73    71    74      1
    74    71    75      1
    75    72    73      1
    76    72    76      1
    77    72    77      1
    78    73    78      1
    79    78    79      1
    80    78    81      1
    81    78    82      1
    82    79    80      1
    83    79    83      1
    84    79    84      1
    85    80    85      1
    86    85    86      1
    87    85    88      1
    88    85    89      1
    89    86    87      1
    90    86    90      1
    91    86    91      1
    92    87    92      1
    93    92    93      1
    94    92    95      1
    95    92    96      1
    96    93    94      1
    97    93    97      1
    98    93    98      1
    99    94    99      1
   100    99   100      1
   101    99   102      1
   102    99   103      1
   103   100   101      1
   104   100   104      1
   105   100   105      1
   106   101   106      1
   107   106   107      1
   108   106   109      1
   109   106   110      1
   110   107   108      1
   111   107   111      1
   112   107   112      1
   113   108   113      1
   114   113   114      1
   115   113   116      1
   116   113   117      1
   117   114   115      1
   118   114   118      1
   119   114   119      1
   120   115   120      1
   121   120   121      1
   122   120   123      1
   123   120   124      1
   124   121   122      1
   125   121   125      1
   126   121   126      1
   127   122   127      1
   128   127   128      1
   129   127   130      1
   130   127   131      1
   131   128   129      1
   132   128   132      1
   133   128   133      1
   134   129   134      1
   135   134   135      1
   136   134   137      1
   137   134   138      1
   138   135   136      1
   139   135   139      1
   140   135   140      1
   141   136   141      1
   142   141   142      1
   143   141   144      1
   144   141   145      1
   145   142   143      1
   146   142   146      1
   147   142   147      1
   148   143   148      1
   149   148   149      1
   150   148   151      1
   151   148   152      1
   152   149   150      1
   153   149   153      1
   154   149   154      1
   155   150   155      1
   156   155   156      1
   157   155   158      1
   158   155   159      1
   159   156   157      1
   160   156   160      1
   161   156   161      1
   162   157   162      1
   163   162   163      1
   164   162   165      1
   165   162   166      1
   166   163   164      1
   167   163   167      1
   168   163   168      1
   169   164   169      1
   170   169   170      1
   171   169   172      1
   172   169   173      1
   173   170   171      1
   174   170   174      1
   175   170   175      1
   176   171   176      1
   177   176   177      1
   178   176   179      1
   179   176   180      1
   180   177   178      1
   181   177   181      1
   182   177   182      1
   183   178   183      1
   184   183   184      1
   185   183   186      1
   186   183   187      1
   187   184   185      1
   188   184   188      1
   189   184   189      1
   190   185   190      1
   191   190   191      1
   192   190   193      1
   193   190   194      1
   194   191   192      1
   195   191   195      1
   196   191   196      1
   197   192   197      1
   198   197   198      1
   199   197   200      1
   200   197   201      1
   201   198   199      1
   202   198   202      1
   203   198   203      1
   204   199   204      1
   205   204   205      1
   206   204   207      1
   207   204   208      1
   208   205   206      1
   209   205   209      1
   210   205   210      1
   211   206   211      1
   212   211   212      1
   213   211   214      1
   214   211   215      1
   215   212   213      1
   216   212   216      1
   217   212   217      1
   218   213   218      1
   219   218   219      1
   220   218   221      1
   221   218   222      1
   222   219   220      1
   223   219   223      1
   224   219   224      1
   225   220   225      1
   226   225   226      1
   227   225   228      1
   228   225   229      1
   229   226   227      1
   230   226   230      1
   231   226   231      1
   232   227   232      1
   233   232   233      1
   234   232   235      1
   235   232   236      1
   236   233   234      1
   237   233   237      1
   238   233   238      1
   239   234   239      1
   240   239   240      1
   241   239   242      1
   242   239   243      1
   243   240   241      1
   244   240   244      1
   245   240   245      1
   246   241   246      1
   247   246   247      1
   248   246   249      1
   249   246   250      1
   250   247   248      1
   251   247   251      1
   252   247   252      1
   253   248   253      1
   254   253   254      1
   255   253   256      1
   256   253   257      1
   257   254   255      1
   258   254   258      1
   259   254   259      1
   260   255   260      1
   261   260   261      1
   262   260   263      1
   263   260   264      1
   264   261   262      1
   265   261   265      1
   266   261   266      1
   267   262   267      1
   268   267   268      1
   269   267   270      1
   270   267   271      1
   271   268   269      1
   272   268   272      1
   273   268   273      1
   274   269   274      1
   275   274   275      1
   276   274   277      1
   277   274   278      1
   278   275   276      1
   279   275   279      1
   280   275   280      1
   281   276   281      1
   282   281   282      1
   283   281   284      1
   284   281   285      1
   285   282   283      1
   286   282   286      1
   287   282   287      1
   288   283   288      1
   289   288   289      1
   290   288   291      1
   291   288   292      1
   292   289   290      1
   293   289   293      1
   294   289   294      1
   295   290   295      1
   296   295   296      1
   297   295   298      1
   298   295   299      1
   299   296   297      1
   300   296   300      1
   301   296   301      1
   302   297   302      1
   303   302   303      1
   304   302   305      1
   305   302   306      1
   306   303   304      1
   307   303   307      1
   308   303   308      1
   309   304   309      1
   310   309   310      1
   311   309   312      1
   312   309   313      1
   313   310   311      1
   314   310   314      1
   315   310   315      1
   316   311   316      1
   317   316   317      1
   318   316   319      1
   319   316   320      1
   320   317   318      1
   321   317   321      1
   322   317   322      1
   323   318   323      1
   324   323   324      1
   325   323   326      1
   326   323   327      1
   327   324   325      1
   328   324   328      1
   329   324   329      1
   330   325   330      1
   331   330   331      1
   332   330   333      1
   333   330   334      1
   334   331   332      1
   335   331   335      1
   336   331   336      1
   337   332   337      1
   338   337   338      1
   339   337   340      1
   340   337   341      1
   341   338   339      1
   342   338   342      1
   343   338   343      1
   344   339   344      1
   345   344   345      1
   346   344   347      1
   347   344   348      1
   348   345   346      1
   349   345   349      1
   350   345   350      1
   351   346   351      1
   352   351   352      1
   353   351   354      1
   354   351   355      1
   355   352   353      1
   356   352   356      1
   357   352   357      1
   358   353   358      1
   359   358   359      1
   360   358   361      1
   361   358   362      1
   362   359   360      1
   363   359   363      1
   364   359   364      1
   365   360   365      1
   366   365   366      1
   367   365   368      1
   368   365   369      1
   369   366   367      1
   370   366   370      1
   371   366   371      1
   372   367   372      1
   373   372   373      1
   374   372   375      1
   375   372   376      1
   376   373   374      1
   377   373   377      1
   378   373   378      1
   379   374   379      1
   380   379   380      1
   381   379   382      1
   382   379   383      1
   383   380   381      1
   384   380   384      1
   385   380   385      1
   386   381   386      1
   387   386   387      1
   388   386   389      1
   389   386   390      1
   390   387   388      1
   391   387   391      1
   392   387   392      1
   393   388   393      1
   394   393   394      1
   395   393   396      1
   396   393   397      1
   397   394   395      1
   398   394   398      1
   399   394   399      1
   400   395   400      1
   401   400   401      1
   402   400   403      1
   403   400   404      1
   404   401   402      1
   405   401   405      1
   406   401   406      1
   407   402   407      1
   408   407   408      1
   409   407   410      1
   410   407   411      1
   411   408   409      1
   412   408   412      1
   413   408   413      1
   414   409   414      1
   415   414   415      1
   416   414   417      1
   417   414   418      1
   418   415   416      1
   419   415   419      1
   420   415   420      1
   421   416   421      1
   422   421   422      1
   423   421   424      1
   424   421   425      1
   425   422   423      1
   426   422   426      1
   427   422   427      1
   428   423   428      1
   429   428   429      1
   430   428   431      1
   431   428   432      1
   432   429   430      1
   433   429   433      1
   434   429   434      1
   435   430   435      1
   436   435   436      1
   437   435   438      1
   438   435   439      1
   439   436   437      1
   440   436   440      1
   441   436   441      1
   442   437   442      1
   443   442   443      1
   444   442   445      1
   445   442   446      1
   446   443   444      1
   447   443   447      1
   448   443   448      1
   449   444   449      1
   450   449   450      1
   451   449   452      1
   452   449   453      1
   453   450   451      1
   454   450   454      1
   455   450   455      1
   456   451   456      1
   457   456   457      1
   458   456   459      1
   459   456   460      1
   460   457   458      1
   461   457   461      1
   462   457   462      1
   463   458   463      1
   464   463   464      1
   465   463   466      1
   466   463   467      1
   467   464   465      1
   468   464   468      1
   469   464   469      1
   470   465   470      1
   471   470   471      1
   472   470   473      1
   473   470   474      1
   474   471   472      1
   475   471   475      1
   476   471   476      1
   477   472   477      1
   478   477   478      1
   479   477   480      1
   480   477   481      1
   481   478   479      1
   482   478   482      1
   483   478   483      1
   484   479   484      1
   485   484   485      1
   486   484   487      1
   487   484   488      1
   488   485   486      1
   489   485   489      1
   490   485   490      1
   491   486   491      1
   492   491   492      1
   493   491   494      1
   494   491   495      1
   495   492   493      1
   496   492   496      1
   497   492   497      1
   498   493   498      1
   499   498   499      1
   500   498   501      1
   501   498   502      1
   502   499   500      1
   503   499   503      1
   504   499   504      1
   505   500   505      1
   506   505   506      1
   507   505   508      1
   508   505   509      1
   509   506   507      1
   510   506   510      1
   511   506   511      1
   512   507   512      1
   513   512   513      1
   514   512   515      1
   515   512   516      1
   516   513   514      1
   517   513   517      1
   518   513   518      1
   519   514   519      1
   520   519   520      1
   521   519   522      1
   522   519   523      1
   523   520   521      1
   524   520   524      1
   525   520   525      1
   526   521   526      1
   527   526   527      1
   528   526   529      1
   529   526   530      1
   530   527   528      1
   531   527   531      1
   532   527   532      1
   533   528   533      1
   534   533   534      1
   535   533   536      1
   536   533   537      1
   537   534   535      1
   538   534   538      1
   539   534   539      1
   540   535   540      1
   541   540   541      1
   542   540   543      1
   543   540   544      1
   544   541   542      1
   545   541   545      1
   546   541   546      1
   547   542   547      1
   548   547   548      1
   549   547   550      1
   550   547   551      1
   551   548   549      1
   552   548   552      1
   553   548   553      1
   554   549   554      1
   555   554   555      1
   556   554   557      1
   557   554   558      1
   558   555   556      1
   559   555   559      1
   560   555   560      1
   561   556   561      1
   562   561   562      1
   563   561   564      1
   564   561   565      1
   565   562   563      1
   566   562   566      1
   567   562   567      1
   568   563   568      1
   569   568   569      1
   570   568   571      1
   571   568   572      1
   572   569   570      1
   573   569   573      1
   574   569   574      1
   575   570   575      1
   576   575   576      1
   577   575   578      1
   578   575   579      1
   579   576   577      1
   580   576   580      1
   581   576   581      1
   582   577   582      1
   583   582   583      1
   584   582   585      1
   585   582   586      1
   586   583   584      1
   587   583   587      1
   588   583   588      1
   589   584   589      1
   590   589   590      1
   591   589   592      1
   592   589   593      1
   593   590   591      1
   594   590   594      1
   595   590   595      1
   596   591   596      1
   597   596   597      1
   598   596   599      1
   599   596   600      1
   600   597   598      1
   601   597   601      1
   602   597   602      1
   603   598   603      1
   604   603   604      1
   605   603   606      1
   606   603   607      1
   607   604   605      1
   608   604   608      1
   609   604   609      1
   610   605   610      1
   611   610   611      1
   612   610   613      1
   613   610   614      1
   614   611   612      1
   615   611   615      1
   616   611   616      1
   617   612   617      1
   618   617   618      1
   619   617   620      1
   620   617   621      1
   621   618   619      1
   622   618   622      1
   623   618   623      1
   624   619   624      1
   625   624   625      1
   626   624   627      1
   627   624   628      1
   628   625   626      1
   629   625   629      1
   630   625   630      1
   631   626   631      1
   632   631   632      1
   633   631   634      1
   634   631   635      1
   635   632   633      1
   636   632   636      1
   637   632   637      1
   638   633   638      1
   639   638   639      1
   640   638   641      1
   641   638   642      1
   642   639   640      1
   643   639   643      1
   644   639   644      1
   645   640   645      1
   646   645   646      1
   647   645   648      1
   648   645   649      1
   649   646   647      1
   650   646   650      1
   651   646   651      1
   652   647   652      1
   653   652   653      1
   654   652   655      1
   655   652   656      1
   656   653   654      1
   657   653   657      1
   658   653   658      1
   659   654   659      1
   660   659   660      1
   661   659   662      1
   662   659   663      1
   663   660   661      1
   664   660   664      1
   665   660   665      1
   666   661   666      1
   667   666   667      1
   668   666   669      1
   669   666   670      1
   670   667   668      1
   671   667   671      1
   672   667   672      1
   673   668   673      1
   674   673   674      1
   675   673   676      1
   676   673   677      1
   677   674   675      1
   678   674   678      1
   679   674   679      1
   680   675   680      1
   681   680   681      1
   682   680   683      1
   683   680   684      1
   684   681   682      1
   685   681   685      1
   686   681   686      1
   687   682   687      1
   688   687   688      1
   689   687   690      1
   690   687   691      1
   691   688   689      1
   692   688   692      1
   693   688   693      1
   694   689   694      1
   695   694   695      1
   696   694   697      1
   697   694   698      1
   698   695   696      1
   699   695   699      1
   700   695   700      1
   701   696   701      1
   702   701   702      1
   703   701   704      1
   704   701   705      1
   705   702   703      1
   706   702   706      1
   707   702   707      1
   708   703   708      1
   709   708   709      1
   710   708   711      1
   711   708   712      1
   712   709   710      1
   713   709   713      1
   714   709   714      1
   715   710   715      1
   716   715   716      1
   717   715   718      1
   718   715   719      1
   719   716   717      1
   720   716   720      1
   721   716   721      1
   722   717   722      1
   723   722   723      1
   724   722   725      1
   725   722   726      1
   726   723   724      1
   727   723   727      1
   728   723   728      1
   729   724   729      1
   730   729   730      1
   731   729   732      1
   732   729   733      1
   733   730   731      1
   734   730   734      1
   735   730   735      1
   736   731   736      1
   737   736   737      1
   738   736   739      1
   739   736   740      1
   740   737   738      1
   741   737   741      1
   742   737   742      1
   743   738   743      1
   744   743   744      1
   745   743   746      1
   746   743   747      1
   747   744   745      1
   748   744   748      1
   749   744   749      1
   750   745   750      1
   751   750   751      1
   752   750   753      1
   753   750   754      1
   754   751   752      1
   755   751   755      1
   756   751   756      1
   757   752   757      1
   758   757   758      1
   759   757   760      1
   760   757   761      1
   761   758   759      1
   762   758   762      1
   763   758   763      1
   764   759   764      1
   765   764   765      1
   766   764   767      1
   767   764   768      1
   768   765   766      1
   769   765   769      1
   770   765   770      1
   771   766   771      1
   772   771   772      1
   773   771   774      1
   774   771   775      1
   775   772   773      1
   776   772   776      1
   777   772   777      1
   778   773   778      1
   779   778   779      1
   780   778   781      1
   781   778   782      1
   782   779   780      1
   783   779   783      1
   784   779   784      1
   785   780   785      1
   786   785   786      1
   787   785   788      1
   788   785   789      1
   789   786   787      1
   790   786   790      1
   791   786   791      1
   792   787   792      1
   793   792   793      1
   794   792   795      1
   795   792   796      1
   796   793   794      1
   797   793   797      1
   798   793   798      1
   799   794   799      1
   800   799   800      1
   801   799   802      1
   802   799   803      1
   803   800   801      1
   804   800   804      1
   805   800   805      1
   806   801   806      1
   807   806   807      1
   808   806   809      1
   809   806   810      1
   810   807   808      1
   811   807   811      1
   812   807   812      1
   813   808   813      1
   814   813   814      1
   815   813   816      1
   816   813   817      1
   817   814   815      1
   818   814   818      1
   819   814   819      1
   820   815   820      1
   821   820   821      1
   822   820   823      1
   823   820   824      1
   824   821   822      1
   825   821   825      1
   826   821   826      1
   827   822   827      1
   828   827   828      1
   829   827   830      1
   830   827   831      1
   831   828   829      1
   832   828   832      1
   833   828   833      1
   834   829   834      1
   835   834   835      1
   836   834   837      1
   837   834   838      1
   838   835   836      1
   839   835   839      1
   840   835   840      1
   841   836   841      1
   842   841   842      1
   843   841   844      1
   844   841   845      1
   845   842   843      1
   846   842   846      1
   847   842   847      1
   848   843   848      1
   849   848   849      1
   850   848   851      1
   851   848   852      1
   852   849   850      1
   853   849   853      1
   854   849   854      1
   855   850   855      1
   856   855   856      1
   857   855   858      1
   858   855   859      1
   859   856   857      1
   860   856   860      1
   861   856   861      1
   862   857   862      1
   863   862   863      1
   864   862   865      1
   865   862   866      1
   866   863   864      1
   867   863   867      1
   868   863   868      1
   869   864   869      1
   870   869   870      1
   871   869   872      1
   872   869   873      1
   873   870   871      1
   874   870   874      1
   875   870   875      1
   876   871   876      1
   877   876   877      1
   878   876   879      1
   879   876   880      1
   880   877   878      1
   881   877   881      1
   882   877   882      1
   883   878   883      1
   884   883   884      1
   885   883   886      1
   886   883   887      1
   887   884   885      1
   888   884   888      1
   889   884   889      1
   890   885   890      1
   891   890   891      1
   892   890   893      1
   893   890   894      1
   894   891   892      1
   895   891   895      1
   896   891   896      1
   897   892   897      1
   898   897   898      1
   899   897   900      1
   900   897   901      1
   901   898   899      1
   902   898   902      1
   903   898   903      1
   904   899   904      1
   905   904   905      1
   906   904   907      1
   907   904   908      1
   908   905   906      1
   909   905   909      1
   910   905   910      1
   911   906   911      1
   912   911   912      1
   913   911   914      1
   914   911   915      1
   915   912   913      1
   916   912   916      1
   917   912   917      1
   918   913   918      1
   919   918   919      1
   920   918   921      1
   921   918   922      1
   922   919   920      1
   923   919   923      1
   924   919   924      1
   925   920   925      1
   926   925   926      1
   927   925   928      1
   928   925   929      1
   929   926   927      1
   930   926   930      1
   931   926   931      1
   932   927   932      1
   933   932   933      1
   934   932   935      1
   935   932   936      1
   936   933   934      1
   937   933   937      1
   938   933   938      1
   939   934   939      1
   940   939   940      1
   941   939   942      1
   942   939   943      1
   943   940   941      1
   944   940   944      1
   945   940   945      1
   946   941   946      1
   947   946   947      1
   948   946   949      1
   949   946   950      1
   950   947   948      1
   951   947   951      1
   952   947   952      1
   953   948   953      1
   954   953   954      1
   955   953   956      1
   956   953   957      1
   957   954   955      1
   958   954   958      1
   959   954   959      1
   960   955   960      1
   961   960   961      1
   962   960   963      1
   963   960   964      1
   964   961   962      1
   965   961   965      1
   966   961   966      1
   967   962   967      1
   968   967   968      1
   969   967   970      1
   970   967   971      1
   971   968   969      1
   972   968   972      1
   973   968   973      1
   974   969   974      1
   975   974   975      1
   976   974   977      1
   977   974   978      1
   978   975   976      1
   979   975   979      1
   980   975   980      1
   981   976   981      1
   982   981   982      1
   983   981   984      1
   984   981   985      1
   985   982   983      1
   986   982   986      1
   987   982   987      1
   988   983   988      1
   989   988   989      1
   990   988   991      1
   991   988   992      1
   992   989   990      1
   993   989   993      1
   994   989   994      1
   995   990   995      1
   996   995   996      1
   997   995   998      1
   998   995   999      1
   999   996   997      1
  1000   996  1000      1
  1001   996  1001      1
  1002   997  1002      1
  1003  1002  1003      1
  1004  1002  1005      1
  1005  1002  1006      1
  1006  1003  1004      1
  1007  1003  1007      1
  1008  1003  1008      1
  1009  1004  1009      1
  1010  1009  1010      1
  1011  1009  1012      1
  1012  1009  1013      1
  1013  1010  1011      1
  1014  1010  1014      1
  1015  1010  1015      1
  1016  1011  1016      1
  1017  1016  1017      1
  1018  1016  1019      1
  1019  1016  1020      1
  1020  1017  1018      1
  1021  1017  1021      1
  1022  1017  1022      1
  1023  1018  1023      1
  1024  1023  1024      1
  1025  1023  1026      1
  1026  1023  1027      1
  1027  1024  1025      1
  1028  1024  1028      1
  1029  1024  1029      1
  1030  1025  1030      1
  1031  1030  1031      1
  1032  1030  1033      1
  1033  1030  1034      1
  1034  1031  1032      1
  1035  1031  1035      1
  1036  1031  1036      1
  1037  1032  1037      1
  1038  1037  1038      1
  1039  1037  1040      1
  1040  1037  1041      1
  1041  1038  1039      1
  1042  1038  1042      1
  1043  1038  1043      1
  1044  1039  1044      1
  1045  1044  1045      1
  1046  1044  1047      1
  1047  1044  1048      1
  1048  1045  1046      1
  1049  1045  1049      1
  1050  1045  1050      1
  1051  1046  1051      1
  1052  1051  1052      1
  1053  1051  1054      1
  1054  1051  1055      1
  1055  1052  1053      1
  1056  1052  1056      1
  1057  1052  1057      1
  1058  1053  1058      1
  1059  1058  1059      1
  1060  1058  1061      1
  1061  1058  1062      1
  1062  1059  1060      1
  1063  1059  1063      1
  1064  1059  1064      1
  1065  1060  1065      1
  1066  1065  1066      1
  1067  1065  1068      1
  1068  1065  1069      1
  1069  1066  1067      1
  1070  1066  1070      1
  1071  1066  1071      1
  1072  1067  1072      1
  1073  1072  1073      1
  1074  1072  1075      1
  1075  1072  1076      1
  1076  1073  1074      1
  1077  1073  1077      1
  1078  1073  1078      1
  1079  1074  1079      1
  1080  1079  1080      1
  1081  1079  1082      1
  1082  1079  1083      1
  1083  1080  1081      1
  1084  1080  1084      1
  1085  1080  1085      1
  1086  1081  1086      1
  1087  1086  1087      1
  1088  1086  1089      1
  1089  1086  1090      1
  1090  1087  1088      1
  1091  1087  1091      1
  1092  1087  1092      1
  1093  1088  1093      1
  1094  1093  1094      1
  1095  1093  1096      1
  1096  1093  1097      1
  1097  1094  1095      1
  1098  1094  1098      1
  1099  1094  1099      1
  1100  1095  1100      1
  1101  1100  1101      1
  1102  1100  1103      1
  1103  1100  1104      1
  1104  1101  1102      1
  1105  1101  1105      1
  1106  1101  1106      1
  1107  1102  1107      1
  1108  1107  1108      1
  1109  1107  1110      1
  1110  1107  1111      1
  1111  1108  1109      1
  1112  1108  1112      1
  1113  1108  1113      1
  1114  1109  1114      1
  1115  1114  1115      1
  1116  1114  1117      1
  1117  1114  1118      1
  1118  1115  1116      1
  1119  1115  1119      1
  1120  1115  1120      1
  1121  1116  1121      1
  1122  1121  1122      1
  1123  1121  1124      1
  1124  1121  1125      1
  1125  1122  1123      1
  1126  1122  1126      1
  1127  1122  1127      1
  1128  1123  1128      1
  1129  1128  1129      1
  1130  1128  1131      1
  1131  1128  1132      1
  1132  1129  1130      1
  1133  1129  1133      1
  1134  1129  1134      1
  1135  1130  1135      1
  1136  1135  1136      1
  1137  1135  1138      1
  1138  1135  1139      1
  1139  1136  1137      1
  1140  1136  1140      1
  1141  1136  1141      1
  1142  1137  1142      1
  1143  1142  1143      1
  1144  1142  1145      1
  1145  1142  1146      1
  1146  1143  1144      1
  1147  1143  1147      1
  1148  1143  1148      1
  1149  1144  1149      1
  1150  1149  1150      1
  1151  1149  1152      1
  1152  1149  1153      1
  1153  1150  1151      1
  1154  1150  1154      1
  1155  1150  1155      1
  1156  1151  1156      1
  1157  1156  1157      1
  1158  1156  1159      1
  1159  1156  1160      1
  1160  1157  1158      1
  1161  1157  1161      1
  1162  1157  1162      1
  1163  1158  1163      1
  1164  1163  1164      1
  1165  1163  1166      1
  1166  1163  1167      1
  1167  1164  1165      1
  1168  1164  1168      1
  1169  1164  1169      1
  1170  1165  1170      1
  1171  1170  1171      1
  1172  1170  1173      1
  1173  1170  1174      1
  1174  1171  1172      1
  1175  1171  1175      1
  1176  1171  1176      1
  1177  1172  1177      1
  1178  1177  1178      1
  1179  1177  1180      1
  1180  1177  1181      1
  1181  1178  1179      1
  1182  1178  1182      1
  1183  1178  1183      1
  1184  1179  1184      1
  1185  1184  1185      1
  1186  1184  1187      1
  1187  1184  1188      1
  1188  1185  1186      1
  1189  1185  1189      1
  1190  1185  1190      1
  1191  1186  1191      1
  1192  1191  1192      1
  1193  1191  1194      1
  1194  1191  1195      1
  1195  1192  1193      1
  1196  1192  1196      1
  1197  1192  1197      1
  1198  1193  1198      1
  1199  1198  1199      1
  1200  1198  1201      1
  1201  1198  1202      1
  1202  1199  1200      1
  1203  1199  1203      1
  1204  1199  1204      1
  1205  1200  1205      1
  1206  1205  1206      1
  1207  1205  1208      1
  1208  1205  1209      1
  1209  1206  1207      1
  1210  1206  1210      1
  1211  1206  1211      1
  1212  1207  1212      1
  1213  1212  1213      1
  1214  1212  1215      1
  1215  1212  1216      1
  1216  1213  1214      1
  1217  1213  1217      1
  1218  1213  1218      1
  1219  1214  1219      1
  1220  1219  1220      1
  1221  1219  1222      1
  1222  1219  1223      1
  1223  1220  1221      1
  1224  1220  1224      1
  1225  1220  1225      1
  1226  1221  1226      1
  1227  1226  1227      1
  1228  1226  1229      1
  1229  1226  1230      1
  1230  1227  1228      1
  1231  1227  1231      1
  1232  1227  1232      1
  1233  1228  1233      1
  1234  1233  1234      1
  1235  1233  1236      1
  1236  1233  1237      1
  1237  1234  1235      1
  1238  1234  1238      1
  1239  1234  1239      1
  1240  1235  1240      1
  1241  1240  1241      1
  1242  1240  1243      1
  1243  1240  1244      1
  1244  1241  1242      1
  1245  1241  1245      1
  1246  1241  1246      1
  1247  1242  1247      1
  1248  1247  1248      1
  1249  1247  1250      1
  1250  1247  1251      1
  1251  1248  1249      1
  1252  1248  1252      1
  1253  1248  1253      1
  1254  1249  1254      1
  1255  1254  1255      1
  1256  1254  1257      1
  1257  1254  1258      1
  1258  1255  1256      1
  1259  1255  1259      1
  1260  1255  1260      1
  1261  1256  1261      1
  1262  1261  1262      1
  1263  1261  1264      1
  1264  1261  1265      1
  1265  1262  1263      1
  1266  1262  1266      1
  1267  1262  1267      1
  1268  1263  1268      1
  1269  1268  1269      1
  1270  1268  1271      1
  1271  1268  1272      1
  1272  1269  1270      1
  1273  1269  1273      1
  1274  1269  1274      1
  1275  1270  1275      1
  1276  1275  1276      1
  1277  1275  1278      1
  1278  1275  1279      1
  1279  1276  1277      1
  1280  1276  1280      1
  1281  1276  1281      1
  1282  1277  1282      1
  1283  1282  1283      1
  1284  1282  1285      1
  1285  1282  1286      1
  1286  1283  1284      1
  1287  1283  1287      1
  1288  1283  1288      1
  1289  1284  1289      1
  1290  1289  1290      1
  1291  1289  1292      1
  1292  1289  1293      1
  1293  1290  1291      1
  1294  1290  1294      1
  1295  1290  1295      1
  1296  1291  1296      1
  1297  1296  1297      1
  1298  1296  1299      1
  1299  1296  1300      1
  1300  1297  1298      1
  1301  1297  1301      1
  1302  1297  1302      1
  1303  1298  1303      1
  1304  1303  1304      1
  1305  1303  1306      1
  1306  1303  1307      1
  1307  1304  1305      1
  1308  1304  1308      1
  1309  1304  1309      1
  1310  1305  1310      1
  1311  1310  1311      1
  1312  1310  1313      1
  1313  1310  1314      1
  1314  1311  1312      1
  1315  1311  1315      1
  1316  1311  1316      1
  1317  1312  1317      1
  1318  1317  1318      1
  1319  1317  1320      1
  1320  1317  1321      1
  1321  1318  1319      1
  1322  1318  1322      1
  1323  1318  1323      1
  1324  1319  1324      1
  1325  1324  1325      1
  1326  1324  1327      1
  1327  1324  1328      1
  1328  1325  1326      1
  1329  1325  1329      1
  1330  1325  1330      1
  1331  1326  1331      1
  1332  1331  1332      1
  1333  1331  1334      1
  1334  1331  1335      1
  1335  1332  1333      1
  1336  1332  1336      1
  1337  1332  1337      1
  1338  1333  1338      1
  1339  1338  1339      1
  1340  1338  1341      1
  1341  1338  1342      1
  1342  1339  1340      1
  1343  1339  1343      1
  1344  1339  1344      1
  1345  1340  1345      1
  1346  1345  1346      1
  1347  1345  1348      1
  1348  1345  1349      1
  1349  1346  1347      1
  1350  1346  1350      1
  1351  1346  1351      1
  1352  1347  1352      1
  1353  1352  1353      1
  1354  1352  1355      1
  1355  1352  1356      1
  1356  1353  1354      1
  1357  1353  1357      1
  1358  1353  1358      1
  1359  1354  1359      1
  1360  1359  1360      1
  1361  1359  1362      1
  1362  1359  1363      1
  1363  1360  1361      1
  1364  1360  1364      1
  1365  1360  1365      1
  1366  1361  1366      1
  1367  1366  1367      1
  1368  1366  1369      1
  1369  1366  1370      1
  1370  1367  1368      1
  1371  1367  1371      1
  1372  1367  1372      1
  1373  1368  1373      1
  1374  1373  1374      1
  1375  1373  1376      1
  1376  1373  1377      1
  1377  1374  1375      1
  1378  1374  1378      1
  1379  1374  1379      1
  1380  1375  1380      1
  1381  1380  1381      1
  1382  1380  1383      1
  1383  1380  1384      1
  1384  1381  1382      1
  1385  1381  1385      1
  1386  1381  1386      1
  1387  1382  1387      1
  1388  1387  1388      1
  1389  1387  1390      1
  1390  1387  1391      1
  1391  1388  1389      1
  1392  1388  1392      1
  1393  1388  1393      1
  1394  1389  1394      1
  1395  1394  1395      1
  1396  1394  1397      1
  1397  1394  1398      1
  1398  1395  1396      1
  1399  1395  1399      1
  1400  1395  1400      1
  1401  1396  1401      1
  1402  1401  1402      1
  1403  1401  1404      1
  1404  1401  1405      1
  1405  1402  1403      1
  1406  1402  1406      1
  1407  1402  1407      1
  1408  1403  1408      1
  1409  1408  1409      1
  1410  1408  1411      1
  1411  1408  1412      1
  1412  1409  1410      1
  1413  1409  1413      1
  1414  1409  1414      1
  1415  1410  1415      1
  1416  1415  1416      1
  1417  1415  1418      1
  1418  1415  1419      1
  1419  1416  1417      1
  1420  1416  1420      1
  1421  1416  1421      1
  1422  1417  1422      1
  1423  1422  1423      1
  1424  1422  1425      1
  1425  1422  1426      1
  1426  1423  1424      1
  1427  1423  1427      1
  1428  1423  1428      1
  1429  1424  1429      1
  1430  1429  1430      1
  1431  1429  1432      1
  1432  1429  1433      1
  1433  1430  1431      1
  1434  1430  1434      1
  1435  1430  1435      1
  1436  1431  1436      1
  1437  1436  1437      1
  1438  1436  1439      1
  1439  1436  1440      1
  1440  1437  1438      1
  1441  1437  1441      1
  1442  1437  1442      1
  1443  1438  1443      1
  1444  1443  1444      1
  1445  1443  1446      1
  1446  1443  1447      1
  1447  1444  1445      1
  1448  1444  1448      1
  1449  1444  1449      1
  1450  1445  1450      1
  1451  1450  1451      1
  1452  1450  1453      1
  1453  1450  1454      1
  1454  1451  1452      1
  1455  1451  1455      1
  1456  1451  1456      1
  1457  1452  1457      1
  1458  1457  1458      1
  1459  1457  1460      1
  1460  1457  1461      1
  1461  1458  1459      1
  1462  1458  1462      1
  1463  1458  1463      1
  1464  1459  1464      1
  1465  1464  1465      1
  1466  1464  1467      1
  1467  1464  1468      1
  1468  1465  1466      1
  1469  1465  1469      1
  1470  1465  1470      1
  1471  1466  1471      1
  1472  1471  1472      1
  1473  1471  1474      1
  1474  1471  1475      1
  1475  1472  1473      1
  1476  1472  1476      1
  1477  1472  1477      1
  1478  1473  1478      1
  1479  1478  1479      1
  1480  1478  1481      1
  1481  1478  1482      1
  1482  1479  1480      1
  1483  1479  1483      1
  1484  1479  1484      1
  1485  1480  1485      1
  1486  1485  1486      1
  1487  1485  1488      1
  1488  1485  1489      1
  1489  1486  1487      1
  1490  1486  1490      1
  1491  1486  1491      1
  1492  1487  1492      1
  1493  1492  1493      1
  1494  1492  1495      1
  1495  1492  1496      1
  1496  1493  1494      1
  1497  1493  1497      1
  1498  1493  1498      1
  1499  1494  1499      1
  1500  1499  1500      1
  1501  1499  1502      1
  1502  1499  1503      1
  1503  1500  1501      1
  1504  1500  1504      1
  1505  1500  1505      1
  1506  1501  1506      1
  1507  1506  1507      1
  1508  1506  1509      1
  1509  1506  1510      1
  1510  1507  1508      1
  1511  1507  1511      1
  1512  1507  1512      1
  1513  1508  1513      1
  1514  1513  1514      1
  1515  1513  1516      1
  1516  1513  1517      1
  1517  1514  1515      1
  1518  1514  1518      1
  1519  1514  1519      1
  1520  1515  1520      1
  1521  1520  1521      1
  1522  1520  1523      1
  1523  1520  1524      1
  1524  1521  1522      1
  1525  1521  1525      1
  1526  1521  1526      1
  1527  1522  1527      1
  1528  1527  1528      1
  1529  1527  1530      1
  1530  1527  1531      1
  1531  1528  1529      1
  1532  1528  1532      1
  1533  1528  1533      1
  1534  1529  1534      1
  1535  1534  1535      1
  1536  1534  1537      1
  1537  1534  1538      1
  1538  1535  1536      1
  1539  1535  1539      1
  1540  1535  1540      1
  1541  1536  1541      1
  1542  1541  1542      1
  1543  1541  1544      1
  1544  1541  1545      1
  1545  1542  1543      1
  1546  1542  1546      1
  1547  1542  1547      1
  1548  1543  1548      1
  1549  1548  1549      1
  1550  1548  1551      1
  1551  1548  1552      1
  1552  1549  1550      1
  1553  1549  1553      1
  1554  1549  1554      1
  1555  1550  1555      1
  1556  1555  1556      1
  1557  1555  1558      1
  1558  1555  1559      1
  1559  1556  1557      1
  1560  1556  1560      1
  1561  1556  1561      1
  1562  1557  1562      1
  1563  1562  1563      1
  1564  1562  1565      1
  1565  1562  1566      1
  1566  1563  1564      1
  1567  1563  1567      1
  1568  1563  1568      1
  1569  1564  1569      1
  1570  1569  1570      1
  1571  1569  1572      1
  1572  1569  1573      1
  1573  1570  1571      1
  1574  1570  1574      1
  1575  1570  1575      1
  1576  1571  1576      1
  1577  1576  1577      1
  1578  1576  1579      1
  1579  1576  1580      1
  1580  1577  1578      1
  1581  1577  1581      1
  1582  1577  1582      1
  1583  1578  1583      1
  1584  1583  1584      1
  1585  1583  1586      1
  1586  1583  1587      1
  1587  1584  1585      1
  1588  1584  1588      1
  1589  1584  1589      1
  1590  1585  1590      1
  1591  1590  1591      1
  1592  1590  1593      1
  1593  1590  1594      1
  1594  1591  1592      1
  1595  1591  1595      1
  1596  1591  1596      1
  1597  1592  1597      1
  1598  1597  1598      1
  1599  1597  1600      1
  1600  1597  1601      1
  1601  1598  1599      1
  1602  1598  1602      1
  1603  1598  1603      1
  1604  1599  1604      1
  1605  1604  1605      1
  1606  1604  1607      1
  1607  1604  1608      1
  1608  1605  1606      1
  1609  1605  1609      1
  1610  1605  1610      1
  1611  1606  1611      1
  1612  1611  1612      1
  1613  1611  1614      1
  1614  1611  1615      1
  1615  1612  1613      1
  1616  1612  1616      1
  1617  1612  1617      1
  1618  1613  1618      1
  1619  1618  1619      1
  1620  1618  1621      1
  1621  1618  1622      1
  1622  1619  1620      1
  1623  1619  1623      1
  1624  1619  1624      1
  1625  1620  1625      1
  1626  1625  1626      1
  1627  1625  1628      1
  1628  1625  1629      1
  1629  1626  1627      1
  1630  1626  1630      1
  1631  1626  1631      1
  1632  1627  1632      1
  1633  1632  1633      1
  1634  1632  1635      1
  1635  1632  1636      1
  1636  1633  1634      1
  1637  1633  1637      1
  1638  1633  1638      1
  1639  1634  1639      1
  1640  1639  1640      1
  1641  1639  1642      1
  1642  1639  1643      1
  1643  1640  1641      1
  1644  1640  1644      1
  1645  1640  1645      1
  1646  1641  1646      1
  1647  1646  1647      1
  1648  1646  1649      1
  1649  1646  1650      1
  1650  1647  1648      1
  1651  1647  1651      1
  1652  1647  1652      1
  1653  1648  1653      1
  1654  1653  1654      1
  1655  1653  1656      1
  1656  1653  1657      1
  1657  1654  1655      1
  1658  1654  1658      1
  1659  1654  1659      1
  1660  1655  1660      1
  1661  1660  1661      1
  1662  1660  1663      1
  1663  1660  1664      1
  1664  1661  1662      1
  1665  1661  1665      1
  1666  1661  1666      1
  1667  1662  1667      1
  1668  1667  1668      1
  1669  1667  1670      1
  1670  1667  1671      1
  1671  1668  1669      1
  1672  1668  1672      1
  1673  1668  1673      1
  1674  1669  1674      1
  1675  1674  1675      1
  1676  1674  1677      1
  1677  1674  1678      1
  1678  1675  1676      1
  1679  1675  1679      1
  1680  1675  1680      1
  1681  1676  1681      1
  1682  1681  1682      1
  1683  1681  1684      1
  1684  1681  1685      1
  1685  1682  1683      1
  1686  1682  1686      1
  1687  1682  1687      1
  1688  1683  1688      1
  1689  1688  1689      1
  1690  1688  1691      1
  1691  1688  1692      1
  1692  1689  1690      1
  1693  1689  1693      1
  1694  1689  1694      1
  1695  1690  1695      1
  1696  1695  1696      1
  1697  1695  1698      1
  1698  1695  1699      1
  1699  1696  1697      1
  1700  1696  1700      1
  1701  1696  1701      1
  1702  1697  1702      1
  1703  1702  1703      1
  1704  1702  1705      1
  1705  1702  1706      1
  1706  1703  1704      1
  1707  1703  1707      1
  1708  1703  1708      1
  1709  1704  1709      1
  1710  1709  1710      1
  1711  1709  1712      1
  1712  1709  1713      1
  1713  1710  1711      1
  1714  1710  1714      1
  1715  1710  1715      1
  1716  1711  1716      1
  1717  1716  1717      1
  1718  1716  1719      1
  1719  1716  1720      1
  1720  1717  1718      1
  1721  1717  1721      1
  1722  1717  1722      1
  1723  1718  1723      1
  1724  1723  1724      1
  1725  1723  1726      1
  1726  1723  1727      1
  1727  1724  1725      1
  1728  1724  1728      1
  1729  1724  1729      1
  1730  1725  1730      1
  1731  1730  1731      1
  1732  1730  1733      1
  1733  1730  1734      1
  1734  1731  1732      1
  1735  1731  1735      1
  1736  1731  1736      1
  1737  1732  1737      1
  1738  1737  1738      1
  1739  1737  1740      1
  1740  1737  1741      1
  1741  1738  1739      1
  1742  1738  1742      1
  1743  1738  1743      1
  1744  1739  1744      1
  1745  1744  1745      1
  1746  1744  1747      1
  1747  1744  1748      1
  1748  1745  1746      1
  1749  1745  1749      1
  1750  1745  1750      1
  1751  1746  1751      1
  1752  1751  1752      1
  1753  1751  1754      1
  1754  1751  1755      1
  1755  1752  1753      1
  1756  1752  1756      1
  1757  1752  1757      1
  1758  1753  1758      1
  1759  1758  1759      1
  1760  1758  1761      1
  1761  1758  1762      1
  1762  1759  1760      1
  1763  1759  1763      1
  1764  1759  1764      1
  1765  1760  1765      1
  1766  1765  1766      1
  1767  1765  1768      1
  1768  1765  1769      1
  1769  1766  1767      1
  1770  1766  1770      1
  1771  1766  1771      1
  1772  1767  1772      1
  1773  1772  1773      1
  1774  1772  1775      1
  1775  1772  1776      1
  1776  1773  1774      1
  1777  1773  1777      1
  1778  1773  1778      1
  1779  1774  1779      1
  1780  1779  1780      1
  1781  1779  1782      1
  1782  1779  1783      1
  1783  1780  1781      1
  1784  1780  1784      1
  1785  1780  1785      1
  1786  1781  1786      1
  1787  1786  1787      1
  1788  1786  1789      1
  1789  1786  1790      1
  1790  1787  1788      1
  1791  1787  1791      1
  1792  1787  1792      1
  1793  1788  1793      1
  1794  1793  1794      1
  1795  1793  1796      1
  1796  1793  1797      1
  1797  1794  1795      1
  1798  1794  1798      1
  1799  1794  1799      1
  1800  1795  1800      1
  1801  1800  1801      1
  1802  1800  1803      1
  1803  1800  1804      1
  1804  1801  1802      1
  1805  1801  1805      1
  1806  1801  1806      1
  1807  1802  1807      1
  1808  1807  1808      1
  1809  1807  1810      1
  1810  1807  1811      1
  1811  1808  1809      1
  1812  1808  1812      1
  1813  1808  1813      1
  1814  1809  1814      1
  1815  1814  1815      1
  1816  1814  1817      1
  1817  1814  1818      1
  1818  1815  1816      1
  1819  1815  1819      1
  1820  1815  1820      1
  1821  1816  1821      1
  1822  1821  1822      1
  1823  1821  1824      1
  1824  1821  1825      1
  1825  1822  1823      1
  1826  1822  1826      1
  1827  1822  1827      1
  1828  1823  1828      1
  1829  1828  1829      1
  1830  1828  1831      1
  1831  1828  1832      1
  1832  1829  1830      1
  1833  1829  1833      1
  1834  1829  1834      1
  1835  1830  1835      1
  1836  1835  1836      1
  1837  1835  1838      1
  1838  1835  1839      1
  1839  1836  1837      1
  1840  1836  1840      1
  1841  1836  1841      1
  1842  1837  1842      1
  1843  1842  1843      1
  1844  1842  1845      1
  1845  1842  1846      1
  1846  1843  1844      1
  1847  1843  1847      1
  1848  1843  1848      1
  1849  1844  1849      1
  1850  1849  1850      1
  1851  1849  1852      1
  1852  1849  1853      1
  1853  1850  1851      1
  1854  1850  1854      1
  1855  1850  1855      1
  1856  1851  1856      1
  1857  1856  1857      1
  1858  1856  1859      1
  1859  1856  1860      1
  1860  1857  1858      1
  1861  1857  1861      1
  1862  1857  1862      1
  1863  1858  1863      1
  1864  1863  1864      1
  1865  1863  1866      1
  1866  1863  1867      1
  1867  1864  1865      1
  1868  1864  1868      1
  1869  1864  1869      1
  1870  1865  1870      1
  1871  1870  1871      1
  1872  1870  1873      1
  1873  1870  1874      1
  1874  1871  1872      1
  1875  1871  1875      1
  1876  1871  1876      1
  1877  1872  1877      1
  1878  1877  1878      1
  1879  1877  1880      1
  1880  1877  1881      1
  1881  1878  1879      1
  1882  1878  1882      1
  1883  1878  1883      1
  1884  1879  1884      1
  1885  1884  1885      1
  1886  1884  1887      1
  1887  1884  1888      1
  1888  1885  1886      1
  1889  1885  1889      1
  1890  1885  1890      1
  1891  1886  1891      1
  1892  1891  1892      1
  1893  1891  1894      1
  1894  1891  1895      1
  1895  1892  1893      1
  1896  1892  1896      1
  1897  1892  1897      1
  1898  1893  1898      1
  1899  1898  1899      1
  1900  1898  1901      1
  1901  1898  1902      1
  1902  1899  1900      1
  1903  1899  1903      1
  1904  1899  1904      1
  1905  1900  1905      1
  1906  1905  1906      1
  1907  1905  1908      1
  1908  1905  1909      1
  1909  1906  1907      1
  1910  1906  1910      1
  1911  1906  1911      1
  1912  1907  1912      1
  1913  1912  1913      1
  1914  1912  1915      1
  1915  1912  1916      1
  1916  1913  1914      1
  1917  1913  1917      1
  1918  1913  1918      1
  1919  1914  1919      1
  1920  1919  1920      1
  1921  1919  1922      1
  1922  1919  1923      1
  1923  1920  1921      1
  1924  1920  1924      1
  1925  1920  1925      1
  1926  1921  1926      1
  1927  1926  1927      1
  1928  1926  1929      1
  1929  1926  1930      1
  1930  1927  1928      1
  1931  1927  1931      1
  1932  1927  1932      1
  1933  1928  1933      1
  1934  1933  1934      1
  1935  1933  1936      1
  1936  1933  1937      1
  1937  1934  1935      1
  1938  1934  1938      1
  1939  1934  1939      1
  1940  1935  1940      1
  1941  1940  1941      1
  1942  1940  1943      1
  1943  1940  1944      1
  1944  1941  1942      1
  1945  1941  1945      1
  1946  1941  1946      1
  1947  1942  1947      1
  1948  1947  1948      1
  1949  1947  1950      1
  1950  1947  1951      1
  1951  1948  1949      1
  1952  1948  1952      1
  1953  1948  1953      1
  1954  1949  1954      1
  1955  1954  1955      1
  1956  1954  1957      1
  1957  1954  1958      1
  1958  1955  1956      1
  1959  1955  1959      1
  1960  1955  1960      1
  1961  1956  1961      1
  1962  1961  1962      1
  1963  1961  1964      1
  1964  1961  1965      1
  1965  1962  1963      1
  1966  1962  1966      1
  1967  1962  1967      1
  1968  1963  1968      1
  1969  1968  1969      1
  1970  1968  1971      1
  1971  1968  1972      1
  1972  1969  1970      1
  1973  1969  1973      1
  1974  1969  1974      1
  1975  1970  1975      1
  1976  1975  1976      1
  1977  1975  1978      1
  1978  1975  1979      1
  1979  1976  1977      1
  1980  1976  1980      1
  1981  1976  1981      1
  1982  1977  1982      1
  1983  1982  1983      1
  1984  1982  1985      1
  1985  1982  1986      1
  1986  1983  1984      1
  1987  1983  1987      1
  1988  1983  1988      1
  1989  1984  1989      1
  1990  1989  1990      1
  1991  1989  1992      1
  1992  1989  1993      1
  1993  1990  1991      1
  1994  1990  1994      1
  1995  1990  1995      1
  1996  1991  1996      1
  1997  1996  1997      1
  1998  1996  1999      1
  1999  1996  2000      1
  2000  1997  1998      1
  2001  1997  2001      1
  2002  1997  2002      1
  2003  1998  2003      1
  2004  2003  2004      1
  2005  2003  2006      1
  2006  2003  2007      1
  2007  2004  2005      1
  2008  2004  2008      1
  2009  2004  2009      1
  2010  2005  2010      1
  2011  2010  2011      1
  2012  2010  2013      1
  2013  2010  2014      1
  2014  2011  2012      1
  2015  2011  2015      1
  2016  2011  2016      1
  2017  2012  2017      1
  2018  2017  2018      1
  2019  2017  2020      1
  2020  2017  2021      1
  2021  2018  2019      1
  2022  2018  2022      1
  2023  2018  2023      1
  2024  2019  2024      1
  2025  2024  2025      1
  2026  2024  2027      1
  2027  2024  2028      1
  2028  2025  2026      1
  2029  2025  2029      1
  2030  2025  2030      1
  2031  2026  2031      1
  2032  2031  2032      1
  2033  2031  2034      1
  2034  2031  2035      1
  2035  2032  2033      1
  2036  2032  2036      1
  2037  2032  2037      1
  2038  2033  2038      1
  2039  2038  2039      1
  2040  2038  2041      1
  2041  2038  2042      1
  2042  2039  2040      1
  2043  2039  2043      1
  2044  2039  2044      1
  2045  2040  2045      1
  2046  2045  2046      1
  2047  2045  2048      1
  2048  2045  2049      1
  2049  2046  2047      1
  2050  2046  2050      1
  2051  2046  2051      1
  2052  2047  2052      1
