###
### Created by PolyChef-cpp17 on Mon May 12 10:39:11 2025
###

@<TRIPOS>MOLECULE
NO_INFO
569 568 1 0 0
SMALL
USER_CHARGES


@<TRIPOS>ATOM
      1 C          36.8656  201.8024   88.0176 C.3       0      M_A    0.0000
      2 C          36.4239  200.3931   88.3997 C.3       0      M_A    0.0000
      3 O          36.5688  199.5079   87.2902 O.3       0      M_A    0.0000
      4 H          36.0578  202.3258   87.4938 H         0      M_A    0.0000
      5 H          37.7000  201.7478   87.3081 H         0      M_A    0.0000
      6 H          37.0722  200.0006   89.1934 H         0      M_A    0.0000
      7 H          35.4007  200.3766   88.8022 H         0      M_A    0.0000
      8 C          35.4491  199.5518   86.4330 C.3       1      M_A    0.0000
      9 C          35.7129  198.8255   85.1177 C.3       1      M_A    0.0000
     10 O          34.7757  197.7648   84.9380 O.3       1      M_A    0.0000
     11 H          34.5820  199.1154   86.9417 H         1      M_A    0.0000
     12 H          35.1862  200.5971   86.2310 H         1      M_A    0.0000
     13 H          35.5651  199.5129   84.2751 H         1      M_A    0.0000
     14 H          36.7503  198.4682   85.0448 H         1      M_A    0.0000
     15 C          35.0498  196.6718   85.7868 C.3       2      M_A    0.0000
     16 C          36.3965  196.0299   85.4679 C.3       2      M_A    0.0000
     17 O          36.7575  195.0980   86.4863 O.3       2      M_A    0.0000
     18 H          35.0242  197.0042   86.8307 H         2      M_A    0.0000
     19 H          34.2526  195.9252   85.6879 H         2      M_A    0.0000
     20 H          36.3250  195.4549   84.5359 H         2      M_A    0.0000
     21 H          37.1833  196.7809   85.3064 H         2      M_A    0.0000
     22 C          37.8991  194.3486   86.1322 C.3       3      M_A    0.0000
     23 C          38.7345  195.0557   85.0695 C.3       3      M_A    0.0000
     24 O          40.1085  194.6911   85.1922 O.3       3      M_A    0.0000
     25 H          38.5030  194.1577   87.0266 H         3      M_A    0.0000
     26 H          37.5880  193.3642   85.7622 H         3      M_A    0.0000
     27 H          38.4184  194.7325   84.0695 H         3      M_A    0.0000
     28 H          38.5993  196.1466   85.0972 H         3      M_A    0.0000
     29 C          40.8284  194.9481   84.0065 C.3       4      M_A    0.0000
     30 C          41.4077  196.3593   83.9893 C.3       4      M_A    0.0000
     31 O          41.5944  196.8046   82.6466 O.3       4      M_A    0.0000
     32 H          41.6280  194.2069   83.8963 H         4      M_A    0.0000
     33 H          40.1675  194.8101   83.1423 H         4      M_A    0.0000
     34 H          40.6994  197.0596   84.4501 H         4      M_A    0.0000
     35 H          42.3359  196.4311   84.5744 H         4      M_A    0.0000
     36 C          41.3697  198.1913   82.5168 C.3       5      M_A    0.0000
     37 C          42.5490  198.8974   81.8549 C.3       5      M_A    0.0000
     38 O          42.3181  200.3042   81.7969 O.3       5      M_A    0.0000
     39 H          40.4527  198.3606   81.9412 H         5      M_A    0.0000
     40 H          41.1888  198.6250   83.5076 H         5      M_A    0.0000
     41 H          43.4545  198.7587   82.4592 H         5      M_A    0.0000
     42 H          42.7747  198.4810   80.8626 H         5      M_A    0.0000
     43 C          42.7826  200.8636   80.5879 C.3       6      M_A    0.0000
     44 C          42.2125  202.2589   80.3527 C.3       6      M_A    0.0000
     45 O          42.1021  202.5224   78.9547 O.3       6      M_A    0.0000
     46 H          43.8779  200.8964   80.5973 H         6      M_A    0.0000
     47 H          42.5073  200.2071   79.7537 H         6      M_A    0.0000
     48 H          41.1948  202.3201   80.7587 H         6      M_A    0.0000
     49 H          42.7964  203.0352   80.8680 H         6      M_A    0.0000
     50 C          43.3659  202.6842   78.3490 C.3       7      M_A    0.0000
     51 C          43.2508  203.2650   76.9430 C.3       7      M_A    0.0000
     52 O          44.5172  203.2342   76.2864 O.3       7      M_A    0.0000
     53 H          43.9924  203.3280   78.9768 H         7      M_A    0.0000
     54 H          43.8762  201.7144   78.3070 H         7      M_A    0.0000
     55 H          42.5752  202.6473   76.3378 H         7      M_A    0.0000
     56 H          42.8202  204.2767   76.9488 H         7      M_A    0.0000
     57 C          44.5375  204.0626   75.1447 C.3       8      M_A    0.0000
     58 C          44.4314  205.5391   75.5133 C.3       8      M_A    0.0000
     59 O          44.3679  206.3429   74.3361 O.3       8      M_A    0.0000
     60 H          45.4552  203.8774   74.5749 H         8      M_A    0.0000
     61 H          43.7091  203.7876   74.4808 H         8      M_A    0.0000
     62 H          43.4980  205.7213   76.0611 H         8      M_A    0.0000
     63 H          45.2462  205.8573   76.1796 H         8      M_A    0.0000
     64 C          45.6519  206.7050   73.8772 C.3       9      M_A    0.0000
     65 C          45.5921  207.4218   72.5319 C.3       9      M_A    0.0000
     66 O          46.3923  206.7390   71.5679 O.3       9      M_A    0.0000
     67 H          46.1420  207.3388   74.6249 H         9      M_A    0.0000
     68 H          46.2737  205.8060   73.7889 H         9      M_A    0.0000
     69 H          44.5649  207.4066   72.1457 H         9      M_A    0.0000
     70 H          45.8731  208.4816   72.6165 H         9      M_A    0.0000
     71 C          46.4438  207.4335   70.3409 C.3      10      M_A    0.0000
     72 C          47.0865  206.5945   69.2409 C.3      10      M_A    0.0000
     73 O          47.6884  207.4372   68.2593 O.3      10      M_A    0.0000
     74 H          45.4314  207.7341   70.0482 H        10      M_A    0.0000
     75 H          47.0088  208.3641   70.4729 H        10      M_A    0.0000
     76 H          47.8963  205.9844   69.6611 H        10      M_A    0.0000
     77 H          46.3730  205.8899   68.7896 H        10      M_A    0.0000
     78 C          46.7237  208.0747   67.4511 C.3      11      M_A    0.0000
     79 C          47.3197  209.2418   66.6702 C.3      11      M_A    0.0000
     80 O          46.2887  210.1241   66.2292 O.3      11      M_A    0.0000
     81 H          46.2811  207.3438   66.7648 H        11      M_A    0.0000
     82 H          45.9011  208.4341   68.0811 H        11      M_A    0.0000
     83 H          47.9729  209.8339   67.3237 H        11      M_A    0.0000
     84 H          47.9481  208.9008   65.8347 H        11      M_A    0.0000
     85 C          46.8010  211.1841   65.4519 C.3      12      M_A    0.0000
     86 C          45.6968  211.9229   64.7021 C.3      12      M_A    0.0000
     87 O          46.2462  212.6761   63.6220 O.3      12      M_A    0.0000
     88 H          47.3526  211.8772   66.0972 H        12      M_A    0.0000
     89 H          47.5329  210.7902   64.7365 H        12      M_A    0.0000
     90 H          45.0030  211.2011   64.2526 H        12      M_A    0.0000
     91 H          45.0939  212.5529   65.3720 H        12      M_A    0.0000
     92 C          46.6780  213.9531   64.0379 C.3      13      M_A    0.0000
     93 C          47.5138  214.6461   62.9663 C.3      13      M_A    0.0000
     94 O          48.7064  215.1841   63.5355 O.3      13      M_A    0.0000
     95 H          45.8078  214.5665   64.2980 H        13      M_A    0.0000
     96 H          47.2655  213.8566   64.9589 H        13      M_A    0.0000
     97 H          47.8348  213.9159   62.2125 H        13      M_A    0.0000
     98 H          46.9389  215.4126   62.4267 H        13      M_A    0.0000
     99 C          49.7882  215.1364   62.6313 C.3      14      M_A    0.0000
    100 C          49.4418  215.7907   61.2974 C.3      14      M_A    0.0000
    101 O          50.4034  215.4365   60.3045 O.3      14      M_A    0.0000
    102 H          50.6611  215.6245   63.0795 H        14      M_A    0.0000
    103 H          50.0783  214.0919   62.4655 H        14      M_A    0.0000
    104 H          48.4752  215.4160   60.9373 H        14      M_A    0.0000
    105 H          49.3342  216.8812   61.3887 H        14      M_A    0.0000
    106 C          50.3266  216.2780   59.1748 C.3      15      M_A    0.0000
    107 C          51.6379  216.3026   58.3957 C.3      15      M_A    0.0000
    108 O          52.0693  217.6469   58.1892 O.3      15      M_A    0.0000
    109 H          49.5056  215.9478   58.5282 H        15      M_A    0.0000
    110 H          50.0686  217.2946   59.4951 H        15      M_A    0.0000
    111 H          52.4280  215.8118   58.9783 H        15      M_A    0.0000
    112 H          51.5652  215.7488   57.4485 H        15      M_A    0.0000
    113 C          51.1568  218.3760   57.3980 C.3      16      M_A    0.0000
    114 C          51.8659  219.1972   56.3257 C.3      16      M_A    0.0000
    115 O          50.9956  219.4284   55.2189 O.3      16      M_A    0.0000
    116 H          50.4399  217.6866   56.9378 H        16      M_A    0.0000
    117 H          50.5669  219.0400   58.0413 H        16      M_A    0.0000
    118 H          52.1268  220.1861   56.7239 H        16      M_A    0.0000
    119 H          52.8116  218.7337   56.0095 H        16      M_A    0.0000
    120 C          51.6176  220.1973   54.2128 C.3      17      M_A    0.0000
    121 C          53.1228  220.3098   54.4342 C.3      17      M_A    0.0000
    122 O          53.7131  221.1361   53.4318 O.3      17      M_A    0.0000
    123 H          51.4090  219.7541   53.2325 H        17      M_A    0.0000
    124 H          51.1718  221.1991   54.1924 H        17      M_A    0.0000
    125 H          53.3235  220.8007   55.3950 H        17      M_A    0.0000
    126 H          53.6069  219.3239   54.4854 H        17      M_A    0.0000
    127 C          53.2574  220.8011   52.1393 C.3      18      M_A    0.0000
    128 C          54.4131  220.6133   51.1614 C.3      18      M_A    0.0000
    129 O          53.9249  220.5326   49.8232 O.3      18      M_A    0.0000
    130 H          52.6500  219.8904   52.1905 H        18      M_A    0.0000
    131 H          52.5889  221.5897   51.7733 H        18      M_A    0.0000
    132 H          55.0766  221.4868   51.1949 H        18      M_A    0.0000
    133 H          55.0353  219.7444   51.4204 H        18      M_A    0.0000
    134 C          54.9753  220.4673   48.8836 C.3      19      M_A    0.0000
    135 C          55.8688  219.2528   49.1153 C.3      19      M_A    0.0000
    136 O          56.8622  219.1636   48.0950 O.3      19      M_A    0.0000
    137 H          54.5585  220.4456   47.8703 H        19      M_A    0.0000
    138 H          55.5750  221.3835   48.9440 H        19      M_A    0.0000
    139 H          56.4105  219.3629   50.0634 H        19      M_A    0.0000
    140 H          55.2875  218.3232   49.1993 H        19      M_A    0.0000
    141 C          57.8372  218.1889   48.3945 C.3      20      M_A    0.0000
    142 C          58.2180  217.3709   47.1645 C.3      20      M_A    0.0000
    143 O          59.5843  217.5961   46.8202 O.3      20      M_A    0.0000
    144 H          58.7233  218.6761   48.8171 H        20      M_A    0.0000
    145 H          57.4567  217.5222   49.1777 H        20      M_A    0.0000
    146 H          58.1289  216.2997   47.3858 H        20      M_A    0.0000
    147 H          57.5472  217.5664   46.3154 H        20      M_A    0.0000
    148 C          59.7960  217.5128   45.4279 C.3      21      M_A    0.0000
    149 C          59.0997  218.6452   44.6796 C.3      21      M_A    0.0000
    150 O          58.7991  218.2477   43.3426 O.3      21      M_A    0.0000
    151 H          60.8721  217.5245   45.2204 H        21      M_A    0.0000
    152 H          59.4282  216.5471   45.0609 H        21      M_A    0.0000
    153 H          58.1378  218.8724   45.1567 H        21      M_A    0.0000
    154 H          59.6834  219.5768   44.7054 H        21      M_A    0.0000
    155 C          57.5761  218.7903   42.8953 C.3      22      M_A    0.0000
    156 C          57.3978  218.6219   41.3896 C.3      22      M_A    0.0000
    157 O          56.1275  218.0400   41.1006 O.3      22      M_A    0.0000
    158 H          56.7473  218.3153   43.4324 H        22      M_A    0.0000
    159 H          57.5336  219.8549   43.1551 H        22      M_A    0.0000
    160 H          57.4048  219.6042   40.9003 H        22      M_A    0.0000
    161 H          58.2202  218.0479   40.9387 H        22      M_A    0.0000
    162 C          56.0772  217.5101   39.7941 C.3      23      M_A    0.0000
    163 C          55.0220  218.2059   38.9401 C.3      23      M_A    0.0000
    164 O          54.5692  217.3374   37.9025 O.3      23      M_A    0.0000
    165 H          57.0642  217.5975   39.3259 H        23      M_A    0.0000
    166 H          55.8612  216.4361   39.8450 H        23      M_A    0.0000
    167 H          54.1413  218.4402   39.5516 H        23      M_A    0.0000
    168 H          55.3821  219.1646   38.5397 H        23      M_A    0.0000
    169 C          53.4387  217.8576   37.2378 C.3      24      M_A    0.0000
    170 C          53.6941  219.2614   36.6981 C.3      24      M_A    0.0000
    171 O          52.4593  219.9244   36.4307 O.3      24      M_A    0.0000
    172 H          53.1511  217.1830   36.4233 H        24      M_A    0.0000
    173 H          52.5872  217.8772   37.9286 H        24      M_A    0.0000
    174 H          54.2097  219.8650   37.4559 H        24      M_A    0.0000
    175 H          54.3496  219.2508   35.8152 H        24      M_A    0.0000
    176 C          51.6181  219.1538   35.6008 C.3      25      M_A    0.0000
    177 C          50.9097  220.0124   34.5575 C.3      25      M_A    0.0000
    178 O          51.1339  219.4912   33.2483 O.3      25      M_A    0.0000
    179 H          52.2063  218.3688   35.1121 H        25      M_A    0.0000
    180 H          50.8748  218.6345   36.2176 H        25      M_A    0.0000
    181 H          49.8249  219.9792   34.7204 H        25      M_A    0.0000
    182 H          51.1993  221.0708   34.6290 H        25      M_A    0.0000
    183 C          51.5206  220.4994   32.3404 C.3      26      M_A    0.0000
    184 C          52.8397  221.1506   32.7442 C.3      26      M_A    0.0000
    185 O          53.1074  222.2850   31.9212 O.3      26      M_A    0.0000
    186 H          51.5984  220.0742   31.3333 H        26      M_A    0.0000
    187 H          50.7341  221.2617   32.2865 H        26      M_A    0.0000
    188 H          52.7715  221.5261   33.7732 H        26      M_A    0.0000
    189 H          53.6738  220.4341   32.7329 H        26      M_A    0.0000
    190 C          54.0389  221.9883   30.9040 C.3      27      M_A    0.0000
    191 C          54.8013  223.2304   30.4533 C.3      27      M_A    0.0000
    192 O          55.2279  223.0886   29.0991 O.3      27      M_A    0.0000
    193 H          54.7364  221.2214   31.2595 H        27      M_A    0.0000
    194 H          53.5147  221.5464   30.0481 H        27      M_A    0.0000
    195 H          54.1386  224.1048   30.4773 H        27      M_A    0.0000
    196 H          55.6423  223.4633   31.1223 H        27      M_A    0.0000
    197 C          55.7676  224.2885   28.5898 C.3      28      M_A    0.0000
    198 C          56.9272  224.7954   29.4416 C.3      28      M_A    0.0000
    199 O          57.4466  226.0104   28.9032 O.3      28      M_A    0.0000
    200 H          56.0947  224.1321   27.5556 H        28      M_A    0.0000
    201 H          54.9811  225.0514   28.5457 H        28      M_A    0.0000
    202 H          56.5722  225.0335   30.4524 H        28      M_A    0.0000
    203 H          57.7128  224.0355   29.5627 H        28      M_A    0.0000
    204 C          57.7821  225.8797   27.5392 C.3      29      M_A    0.0000
    205 C          59.2915  225.8049   27.3310 C.3      29      M_A    0.0000
    206 O          59.6962  226.6995   26.2958 O.3      29      M_A    0.0000
    207 H          57.2962  224.9880   27.1270 H        29      M_A    0.0000
    208 H          57.3744  226.7310   26.9809 H        29      M_A    0.0000
    209 H          59.8108  226.1318   28.2408 H        29      M_A    0.0000
    210 H          59.6304  224.7771   27.1358 H        29      M_A    0.0000
    211 C          60.8843  227.3842   26.6276 C.3      30      M_A    0.0000
    212 C          60.7340  228.8934   26.4628 C.3      30      M_A    0.0000
    213 O          62.0145  229.5227   26.4492 O.3      30      M_A    0.0000
    214 H          61.1715  227.1403   27.6567 H        30      M_A    0.0000
    215 H          61.7019  227.0233   25.9922 H        30      M_A    0.0000
    216 H          60.2698  229.1191   25.4944 H        30      M_A    0.0000
    217 H          60.0753  229.3282   27.2285 H        30      M_A    0.0000
    218 C          61.9408  230.8729   26.8513 C.3      31      M_A    0.0000
    219 C          62.9369  231.7455   26.0939 C.3      31      M_A    0.0000
    220 O          63.3780  232.8255   26.9153 O.3      31      M_A    0.0000
    221 H          60.9201  231.2434   26.7027 H        31      M_A    0.0000
    222 H          62.1336  230.9429   27.9286 H        31      M_A    0.0000
    223 H          63.8324  231.1614   25.8462 H        31      M_A    0.0000
    224 H          62.5283  232.1025   25.1374 H        31      M_A    0.0000
    225 C          64.0124  233.8346   26.1606 C.3      32      M_A    0.0000
    226 C          65.4975  233.9421   26.4925 C.3      32      M_A    0.0000
    227 O          66.0256  235.1794   26.0171 O.3      32      M_A    0.0000
    228 H          63.8745  233.6333   25.0922 H        32      M_A    0.0000
    229 H          63.5209  234.7960   26.3527 H        32      M_A    0.0000
    230 H          65.6379  233.9454   27.5809 H        32      M_A    0.0000
    231 H          66.0683  233.0830   26.1113 H        32      M_A    0.0000
    232 C          67.3662  235.3661   26.4150 C.3      33      M_A    0.0000
    233 C          68.0209  234.0540   26.8358 C.3      33      M_A    0.0000
    234 O          69.1846  234.3077   27.6214 O.3      33      M_A    0.0000
    235 H          67.9297  235.8273   25.5960 H        33      M_A    0.0000
    236 H          67.4030  236.0801   27.2465 H        33      M_A    0.0000
    237 H          67.3360  233.4831   27.4757 H        33      M_A    0.0000
    238 H          68.2449  233.4097   25.9733 H        33      M_A    0.0000
    239 C          69.9653  235.3519   27.0823 C.3      34      M_A    0.0000
    240 C          71.4559  235.1215   27.3103 C.3      34      M_A    0.0000
    241 O          72.1537  236.3658   27.3374 O.3      34      M_A    0.0000
    242 H          69.7546  235.4503   26.0113 H        34      M_A    0.0000
    243 H          69.6651  236.3032   27.5377 H        34      M_A    0.0000
    244 H          71.6164  234.6572   28.2917 H        34      M_A    0.0000
    245 H          71.8845  234.4309   26.5696 H        34      M_A    0.0000
    246 C          73.3945  236.2581   28.0000 C.3      35      M_A    0.0000
    247 C          74.5269  235.9264   27.0332 C.3      35      M_A    0.0000
    248 O          75.6286  235.3523   27.7349 O.3      35      M_A    0.0000
    249 H          73.6081  237.1932   28.5302 H        35      M_A    0.0000
    250 H          73.3289  235.4817   28.7717 H        35      M_A    0.0000
    251 H          74.1929  235.1693   26.3123 H        35      M_A    0.0000
    252 H          74.8330  236.8009   26.4410 H        35      M_A    0.0000
    253 C          76.5827  236.3249   28.1011 C.3      36      M_A    0.0000
    254 C          77.2910  236.9111   26.8838 C.3      36      M_A    0.0000
    255 O          78.1013  235.9199   26.2539 O.3      36      M_A    0.0000
    256 H          76.0930  237.1192   28.6758 H        36      M_A    0.0000
    257 H          77.3207  235.8748   28.7760 H        36      M_A    0.0000
    258 H          76.5513  237.2246   26.1361 H        36      M_A    0.0000
    259 H          77.8716  237.8098   27.1376 H        36      M_A    0.0000
    260 C          78.9520  236.4794   25.2773 C.3      37      M_A    0.0000
    261 C          78.2340  236.6775   23.9460 C.3      37      M_A    0.0000
    262 O          79.1461  236.5200   22.8601 O.3      37      M_A    0.0000
    263 H          79.3488  237.4337   25.6417 H        37      M_A    0.0000
    264 H          79.8210  235.8259   25.1342 H        37      M_A    0.0000
    265 H          77.4656  235.9045   23.8172 H        37      M_A    0.0000
    266 H          77.7097  237.6430   23.9000 H        37      M_A    0.0000
    267 C          78.5118  236.0000   21.7123 C.3      38      M_A    0.0000
    268 C          77.8309  237.0940   20.8958 C.3      38      M_A    0.0000
    269 O          77.0237  236.5195   19.8690 O.3      38      M_A    0.0000
    270 H          79.2470  235.4680   21.0978 H        38      M_A    0.0000
    271 H          77.7711  235.2497   22.0142 H        38      M_A    0.0000
    272 H          77.1506  237.6696   21.5363 H        38      M_A    0.0000
    273 H          78.5542  237.8153   20.4887 H        38      M_A    0.0000
    274 C          75.8854  237.3061   19.5934 C.3      39      M_A    0.0000
    275 C          76.2635  238.7227   19.1718 C.3      39      M_A    0.0000
    276 O          75.1091  239.5610   19.1517 O.3      39      M_A    0.0000
    277 H          75.2876  236.8230   18.8123 H        39      M_A    0.0000
    278 H          75.2455  237.3445   20.4832 H        39      M_A    0.0000
    279 H          76.9495  239.1611   19.9077 H        39      M_A    0.0000
    280 H          76.7943  238.7384   18.2089 H        39      M_A    0.0000
    281 C          75.4142  240.8848   19.5321 C.3      40      M_A    0.0000
    282 C          76.6683  241.4009   18.8334 C.3      40      M_A    0.0000
    283 O          76.9098  242.7624   19.1854 O.3      40      M_A    0.0000
    284 H          74.5602  241.5349   19.3107 H        40      M_A    0.0000
    285 H          75.5531  240.9283   20.6190 H        40      M_A    0.0000
    286 H          77.5451  240.8349   19.1732 H        40      M_A    0.0000
    287 H          76.6184  241.2653   17.7433 H        40      M_A    0.0000
    288 C          78.1726  243.2047   18.7383 C.3      41      M_A    0.0000
    289 C          78.0524  244.3738   17.7656 C.3      41      M_A    0.0000
    290 O          79.2767  244.5599   17.0569 O.3      41      M_A    0.0000
    291 H          78.7869  243.4883   19.6004 H        41      M_A    0.0000
    292 H          78.6985  242.3737   18.2530 H        41      M_A    0.0000
    293 H          77.2891  244.1530   17.0086 H        41      M_A    0.0000
    294 H          77.7291  245.2968   18.2683 H        41      M_A    0.0000
    295 C          79.8834  245.7942   17.3711 C.3      42      M_A    0.0000
    296 C          81.3700  245.7989   17.0289 C.3      42      M_A    0.0000
    297 O          81.6853  246.9125   16.1944 O.3      42      M_A    0.0000
    298 H          79.3675  246.6011   16.8385 H        42      M_A    0.0000
    299 H          79.7500  246.0038   18.4392 H        42      M_A    0.0000
    300 H          81.9636  245.9220   17.9437 H        42      M_A    0.0000
    301 H          81.6924  244.8490   16.5785 H        42      M_A    0.0000
    302 C          82.7050  246.6040   15.2695 C.3      43      M_A    0.0000
    303 C          83.8747  245.8845   15.9339 C.3      43      M_A    0.0000
    304 O          85.0065  245.8669   15.0653 O.3      43      M_A    0.0000
    305 H          82.2914  245.9917   14.4602 H        43      M_A    0.0000
    306 H          83.0602  247.5281   14.7978 H        43      M_A    0.0000
    307 H          84.1860  246.4296   16.8341 H        43      M_A    0.0000
    308 H          83.6012  244.8727   16.2662 H        43      M_A    0.0000
    309 C          84.8639  244.9131   14.0356 C.3      44      M_A    0.0000
    310 C          85.2557  245.4835   12.6760 C.3      44      M_A    0.0000
    311 O          84.9773  244.5409   11.6417 O.3      44      M_A    0.0000
    312 H          85.4713  244.0309   14.2678 H        44      M_A    0.0000
    313 H          83.8247  244.5645   14.0038 H        44      M_A    0.0000
    314 H          84.6498  246.3713   12.4546 H        44      M_A    0.0000
    315 H          86.3044  245.8135   12.6540 H        44      M_A    0.0000
    316 C          85.1311  245.1076   10.3589 C.3      45      M_A    0.0000
    317 C          86.2815  246.1085   10.3153 C.3      45      M_A    0.0000
    318 O          86.9966  245.9919    9.0860 O.3      45      M_A    0.0000
    319 H          85.2917  244.3106    9.6240 H        45      M_A    0.0000
    320 H          84.1983  245.6046   10.0664 H        45      M_A    0.0000
    321 H          85.8874  247.1323   10.3462 H        45      M_A    0.0000
    322 H          86.9478  246.0090   11.1843 H        45      M_A    0.0000
    323 C          88.2410  246.6546    9.1370 C.3      46      M_A    0.0000
    324 C          89.2041  245.9787   10.1081 C.3      46      M_A    0.0000
    325 O          90.5260  246.4864    9.9326 O.3      46      M_A    0.0000
    326 H          88.6769  246.6916    8.1322 H        46      M_A    0.0000
    327 H          88.0857  247.6978    9.4375 H        46      M_A    0.0000
    328 H          88.9189  246.2136   11.1415 H        46      M_A    0.0000
    329 H          89.1746  244.8829   10.0223 H        46      M_A    0.0000
    330 C          91.3811  245.5325    9.3417 C.3      47      M_A    0.0000
    331 C          92.8178  245.6768    9.8339 C.3      47      M_A    0.0000
    332 O          93.7348  245.2662    8.8207 O.3      47      M_A    0.0000
    333 H          91.0057  244.5247    9.5525 H        47      M_A    0.0000
    334 H          91.3518  245.6437    8.2510 H        47      M_A    0.0000
    335 H          93.0383  246.7321   10.0392 H        47      M_A    0.0000
    336 H          92.9864  245.1381   10.7775 H        47      M_A    0.0000
    337 C          95.0325  245.7694    9.0513 C.3      48      M_A    0.0000
    338 C          96.0047  244.6662    9.4574 C.3      48      M_A    0.0000
    339 O          97.1504  245.2237   10.0996 O.3      48      M_A    0.0000
    340 H          95.3915  246.2809    8.1510 H        48      M_A    0.0000
    341 H          94.9923  246.5334    9.8369 H        48      M_A    0.0000
    342 H          95.5315  244.0034   10.1931 H        48      M_A    0.0000
    343 H          96.2853  244.0298    8.6057 H        48      M_A    0.0000
    344 C          98.2429  245.3427    9.2150 C.3      49      M_A    0.0000
    345 C          99.5580  244.9524    9.8822 C.3      49      M_A    0.0000
    346 O         100.6648  245.4113    9.1074 O.3      49      M_A    0.0000
    347 H          98.0658  244.7213    8.3298 H        49      M_A    0.0000
    348 H          98.3058  246.3754    8.8513 H        49      M_A    0.0000
    349 H          99.6416  245.4444   10.8596 H        49      M_A    0.0000
    350 H          99.6174  243.8716   10.0758 H        49      M_A    0.0000
    351 C         101.8659  244.7689    9.4747 C.3      50      M_A    0.0000
    352 C         102.9453  244.9322    8.4092 C.3      50      M_A    0.0000
    353 O         103.8756  243.8522    8.4732 O.3      50      M_A    0.0000
    354 H         102.2147  245.1670   10.4343 H        50      M_A    0.0000
    355 H         101.6717  243.7027    9.6427 H        50      M_A    0.0000
    356 H         102.4934  244.8903    7.4100 H        50      M_A    0.0000
    357 H         103.4488  245.9073    8.4784 H        50      M_A    0.0000
    358 C         104.3689  243.6603    9.7810 C.3      51      M_A    0.0000
    359 C         105.7549  243.0231    9.7765 C.3      51      M_A    0.0000
    360 O         105.6556  241.6138    9.9759 O.3      51      M_A    0.0000
    361 H         104.3932  244.6213   10.3071 H        51      M_A    0.0000
    362 H         103.6729  243.0259   10.3429 H        51      M_A    0.0000
    363 H         106.2272  243.1627    8.7958 H        51      M_A    0.0000
    364 H         106.4264  243.4914   10.5107 H        51      M_A    0.0000
    365 C         106.5905  240.9050    9.1924 C.3      52      M_A    0.0000
    366 C         107.3904  239.9091   10.0264 C.3      52      M_A    0.0000
    367 O         108.4643  239.3666    9.2595 O.3      52      M_A    0.0000
    368 H         106.0687  240.3880    8.3791 H        52      M_A    0.0000
    369 H         107.2734  241.6146    8.7100 H        52      M_A    0.0000
    370 H         107.8506  240.4218   10.8807 H        52      M_A    0.0000
    371 H         106.7527  239.1191   10.4489 H        52      M_A    0.0000
    372 C         109.2724  238.5006   10.0259 C.3      53      M_A    0.0000
    373 C         109.2216  237.0678    9.5045 C.3      53      M_A    0.0000
    374 O         109.7194  236.1621   10.4882 O.3      53      M_A    0.0000
    375 H         110.3045  238.8691   10.0270 H        53      M_A    0.0000
    376 H         108.9420  238.5247   11.0713 H        53      M_A    0.0000
    377 H         108.1808  236.7756    9.3156 H        53      M_A    0.0000
    378 H         109.7505  236.9587    8.5466 H        53      M_A    0.0000
    379 C         110.2468  234.9907    9.9051 C.3      54      M_A    0.0000
    380 C         109.3834  234.4941    8.7496 C.3      54      M_A    0.0000
    381 O         109.2781  233.0715    8.7823 O.3      54      M_A    0.0000
    382 H         111.2696  235.1821    9.5613 H        54      M_A    0.0000
    383 H         110.3265  234.2079   10.6690 H        54      M_A    0.0000
    384 H         108.3617  234.8809    8.8535 H        54      M_A    0.0000
    385 H         109.7505  234.8525    7.7769 H        54      M_A    0.0000
    386 C         110.2757  232.4526    8.0000 C.3      55      M_A    0.0000
    387 C         110.1926  230.9312    8.0750 C.3      55      M_A    0.0000
    388 O         111.4418  230.3458    7.7108 O.3      55      M_A    0.0000
    389 H         110.1857  232.7881    6.9606 H        55      M_A    0.0000
    390 H         111.2637  232.7853    8.3403 H        55      M_A    0.0000
    391 H         109.9956  230.6182    9.1083 H        55      M_A    0.0000
    392 H         109.3652  230.5331    7.4700 H        55      M_A    0.0000
    393 C         111.3151  228.9690    7.4301 C.3      56      M_A    0.0000
    394 C         110.4931  228.2468    8.4931 C.3      56      M_A    0.0000
    395 O         110.7052  226.8380    8.4144 O.3      56      M_A    0.0000
    396 H         110.8593  228.8378    6.4421 H        56      M_A    0.0000
    397 H         112.3124  228.5175    7.3650 H        56      M_A    0.0000
    398 H         110.8248  228.5525    9.4935 H        56      M_A    0.0000
    399 H         109.4251  228.5013    8.4319 H        56      M_A    0.0000
    400 C         109.5050  226.1389    8.1671 C.3      57      M_A    0.0000
    401 C         109.7381  224.6358    8.0495 C.3      57      M_A    0.0000
    402 O         109.6444  224.2226    6.6870 O.3      57      M_A    0.0000
    403 H         108.7867  226.3513    8.9671 H        57      M_A    0.0000
    404 H         109.0484  226.5148    7.2436 H        57      M_A    0.0000
    405 H         110.7560  224.3888    8.3767 H        57      M_A    0.0000
    406 H         109.0592  224.0614    8.6963 H        57      M_A    0.0000
    407 C         109.0926  222.9298    6.5667 C.3      58      M_A    0.0000
    408 C         110.1715  221.8678    6.3789 C.3      58      M_A    0.0000
    409 O         109.5805  220.5766    6.2399 O.3      58      M_A    0.0000
    410 H         108.4885  222.7062    7.4533 H        58      M_A    0.0000
    411 H         108.4006  222.9072    5.7162 H        58      M_A    0.0000
    412 H         110.7228  222.0557    5.4487 H        58      M_A    0.0000
    413 H         110.9164  221.8892    7.1875 H        58      M_A    0.0000
    414 C         110.4962  219.5449    6.5352 C.3      59      M_A    0.0000
    415 C         111.9067  219.8868    6.0652 C.3      59      M_A    0.0000
    416 O         112.7351  218.7253    6.0901 O.3      59      M_A    0.0000
    417 H         110.4911  219.3492    7.6135 H        59      M_A    0.0000
    418 H         110.1635  218.6153    6.0579 H        59      M_A    0.0000
    419 H         111.8812  220.2243    5.0212 H        59      M_A    0.0000
    420 H         112.3457  220.7119    6.6446 H        59      M_A    0.0000
    421 C         112.3643  217.8375    7.1219 C.3      60      M_A    0.0000
    422 C         113.1616  216.5381    7.0657 C.3      60      M_A    0.0000
    423 O         112.2832  215.4138    7.0849 O.3      60      M_A    0.0000
    424 H         112.5022  218.3271    8.0926 H        60      M_A    0.0000
    425 H         111.2929  217.6166    7.0445 H        60      M_A    0.0000
    426 H         113.7153  216.4800    6.1199 H        60      M_A    0.0000
    427 H         113.9133  216.4806    7.8662 H        60      M_A    0.0000
    428 C         112.7734  214.3779    7.9077 C.3      61      M_A    0.0000
    429 C         111.9644  213.0947    7.7467 C.3      61      M_A    0.0000
    430 O         111.4579  212.6636    9.0090 O.3      61      M_A    0.0000
    431 H         113.8285  214.1946    7.6752 H        61      M_A    0.0000
    432 H         112.7469  214.7018    8.9552 H        61      M_A    0.0000
    433 H         111.0891  213.2820    7.1116 H        61      M_A    0.0000
    434 H         112.5421  212.3028    7.2484 H        61      M_A    0.0000
    435 C         112.3912  211.8673    9.7055 C.3      62      M_A    0.0000
    436 C         111.8132  211.3254   11.0092 C.3      62      M_A    0.0000
    437 O         112.7893  211.3827   12.0483 O.3      62      M_A    0.0000
    438 H         112.7197  211.0426    9.0628 H        62      M_A    0.0000
    439 H         113.2887  212.4604    9.9182 H        62      M_A    0.0000
    440 H         110.9768  211.9555   11.3375 H        62      M_A    0.0000
    441 H         111.4057  210.3111   10.8895 H        62      M_A    0.0000
    442 C         112.7366  210.2458   12.8821 C.3      63      M_A    0.0000
    443 C         114.0869  209.5409   12.9658 C.3      63      M_A    0.0000
    444 O         113.9102  208.1250   12.9667 O.3      63      M_A    0.0000
    445 H         112.3985  210.5411   13.8818 H        63      M_A    0.0000
    446 H         111.9800  209.5497   12.5007 H        63      M_A    0.0000
    447 H         114.6868  209.7757   12.0774 H        63      M_A    0.0000
    448 H         114.6749  209.8778   13.8318 H        63      M_A    0.0000
    449 C         115.0717  207.4502   12.5358 C.3      64      M_A    0.0000
    450 C         114.8774  205.9371   12.5246 C.3      64      M_A    0.0000
    451 O         116.1381  205.2727   12.5951 O.3      64      M_A    0.0000
    452 H         115.3519  207.8055   11.5377 H        64      M_A    0.0000
    453 H         115.9090  207.7097   13.1948 H        64      M_A    0.0000
    454 H         114.3153  205.6260   13.4143 H        64      M_A    0.0000
    455 H         114.2897  205.6033   11.6572 H        64      M_A    0.0000
    456 C         116.7162  205.1057   11.3190 C.3      65      M_A    0.0000
    457 C         118.0204  204.3172   11.3861 C.3      65      M_A    0.0000
    458 O         118.8946  204.7099   10.3290 O.3      65      M_A    0.0000
    459 H         116.0016  204.6041   10.6567 H        65      M_A    0.0000
    460 H         116.9026  206.0898   10.8724 H        65      M_A    0.0000
    461 H         118.5471  204.5448   12.3216 H        65      M_A    0.0000
    462 H         117.8462  203.2314   11.3876 H        65      M_A    0.0000
    463 C         119.9422  203.7837   10.1418 C.3      66      M_A    0.0000
    464 C         120.3424  203.1082   11.4498 C.3      66      M_A    0.0000
    465 O         121.7026  202.6810   11.3937 O.3      66      M_A    0.0000
    466 H         119.6390  203.0332    9.4029 H        66      M_A    0.0000
    467 H         120.8100  204.2978    9.7115 H        66      M_A    0.0000
    468 H         120.2794  203.8274   12.2763 H        66      M_A    0.0000
    469 H         119.6666  202.2807   11.7101 H        66      M_A    0.0000
    470 C         122.1624  202.2253   12.6472 C.3      67      M_A    0.0000
    471 C         123.3253  201.2484   12.5038 C.3      67      M_A    0.0000
    472 O         124.2647  201.4337   13.5616 O.3      67      M_A    0.0000
    473 H         122.4591  203.0829   13.2616 H        67      M_A    0.0000
    474 H         121.3375  201.7407   13.1833 H        67      M_A    0.0000
    475 H         122.9603  200.2173   12.5934 H        67      M_A    0.0000
    476 H         123.8049  201.3202   11.5168 H        67      M_A    0.0000
    477 C         125.5946  201.4253   13.0910 C.3      68      M_A    0.0000
    478 C         126.3467  200.1757   13.5385 C.3      68      M_A    0.0000
    479 O         127.7312  200.4672   13.7230 O.3      68      M_A    0.0000
    480 H         125.5959  201.4993   11.9976 H        68      M_A    0.0000
    481 H         126.1151  202.3193   13.4549 H        68      M_A    0.0000
    482 H         125.9698  199.8420   14.5138 H        68      M_A    0.0000
    483 H         126.1969  199.3343   12.8466 H        68      M_A    0.0000
    484 C         128.1267  201.6152   13.0048 C.3      69      M_A    0.0000
    485 C         129.5706  202.0039   13.3072 C.3      69      M_A    0.0000
    486 O         129.6104  203.1035   14.2155 O.3      69      M_A    0.0000
    487 H         127.9972  201.4375   11.9312 H        69      M_A    0.0000
    488 H         127.4600  202.4491   13.2555 H        69      M_A    0.0000
    489 H         130.0844  201.1729   13.8071 H        69      M_A    0.0000
    490 H         130.1421  202.2122   12.3911 H        69      M_A    0.0000
    491 C         130.7247  203.0326   15.0780 C.3      70      M_A    0.0000
    492 C         130.5541  201.9479   16.1370 C.3      70      M_A    0.0000
    493 O         131.1236  202.3679   17.3760 O.3      70      M_A    0.0000
    494 H         131.6313  202.8512   14.4897 H        70      M_A    0.0000
    495 H         130.8702  204.0043   15.5652 H        70      M_A    0.0000
    496 H         129.4871  201.7789   16.3303 H        70      M_A    0.0000
    497 H         130.9638  200.9821   15.8077 H        70      M_A    0.0000
    498 C         131.2717  203.7695   17.4381 C.3      71      M_A    0.0000
    499 C         131.7317  204.2307   18.8176 C.3      71      M_A    0.0000
    500 O         131.0368  205.4156   19.2038 O.3      71      M_A    0.0000
    501 H         131.9825  204.0963   16.6707 H        71      M_A    0.0000
    502 H         130.3169  204.2477   17.1886 H        71      M_A    0.0000
    503 H         131.4830  203.4696   19.5682 H        71      M_A    0.0000
    504 H         132.8221  204.3648   18.8652 H        71      M_A    0.0000
    505 C         130.9375  206.3368   18.1400 C.3      72      M_A    0.0000
    506 C         131.2894  207.7538   18.5821 C.3      72      M_A    0.0000
    507 O         130.3245  208.6829   18.0905 O.3      72      M_A    0.0000
    508 H         131.5919  206.0202   17.3199 H        72      M_A    0.0000
    509 H         129.9177  206.3187   17.7369 H        72      M_A    0.0000
    510 H         131.2538  207.8234   19.6768 H        72      M_A    0.0000
    511 H         132.3111  208.0354   18.2891 H        72      M_A    0.0000
    512 C         130.4311  209.9375   18.7269 C.3      73      M_A    0.0000
    513 C         131.8784  210.2807   19.0653 C.3      73      M_A    0.0000
    514 O         131.9324  211.4161   19.9277 O.3      73      M_A    0.0000
    515 H         129.9965  210.7115   18.0843 H        73      M_A    0.0000
    516 H         129.8290  209.9329   19.6435 H        73      M_A    0.0000
    517 H         132.3395  209.4522   19.6181 H        73      M_A    0.0000
    518 H         132.4896  210.4260   18.1628 H        73      M_A    0.0000
    519 C         132.0003  212.6242   19.2023 C.3      74      M_A    0.0000
    520 C         133.3237  212.7643   18.4565 C.3      74      M_A    0.0000
    521 O         134.0821  213.8499   18.9877 O.3      74      M_A    0.0000
    522 H         131.1602  212.6769   18.5004 H        74      M_A    0.0000
    523 H         131.8729  213.4691   19.8897 H        74      M_A    0.0000
    524 H         133.9324  211.8629   18.6029 H        74      M_A    0.0000
    525 H         133.1769  212.8634   17.3712 H        74      M_A    0.0000
    526 C         133.8686  215.0431   18.2658 C.3      75      M_A    0.0000
    527 C         135.0870  215.9599   18.3125 C.3      75      M_A    0.0000
    528 O         134.7188  217.2534   18.7891 O.3      75      M_A    0.0000
    529 H         133.6133  214.8016   17.2278 H        75      M_A    0.0000
    530 H         132.9971  215.5664   18.6772 H        75      M_A    0.0000
    531 H         135.8231  215.5672   19.0254 H        75      M_A    0.0000
    532 H         135.5990  216.0151   17.3409 H        75      M_A    0.0000
    533 C         135.8294  217.9647   19.2899 C.3      76      M_A    0.0000
    534 C         135.7926  219.4342   18.8821 C.3      76      M_A    0.0000
    535 O         137.0807  220.0273   19.0403 O.3      76      M_A    0.0000
    536 H         135.8601  217.8732   20.3816 H        76      M_A    0.0000
    537 H         136.7535  217.5027   18.9220 H        76      M_A    0.0000
    538 H         135.5429  219.5202   17.8168 H        76      M_A    0.0000
    539 H         135.0177  219.9938   19.4257 H        76      M_A    0.0000
    540 C         137.0074  221.2779   19.6891 C.3      77      M_A    0.0000
    541 C         135.9999  222.2065   19.0185 C.3      77      M_A    0.0000
    542 O         136.3518  223.5705   19.2458 O.3      77      M_A    0.0000
    543 H         136.7449  221.1284   20.7425 H        77      M_A    0.0000
    544 H         137.9987  221.7469   19.6884 H        77      M_A    0.0000
    545 H         136.0226  222.0599   17.9311 H        77      M_A    0.0000
    546 H         134.9687  221.9943   19.3359 H        77      M_A    0.0000
    547 C         135.2750  224.3091   19.7799 C.3      78      M_A    0.0000
    548 C         134.9666  225.5473   18.9438 C.3      78      M_A    0.0000
    549 O         133.7552  226.1577   19.3863 O.3      78      M_A    0.0000
    550 H         134.3900  223.6666   19.8496 H        78      M_A    0.0000
    551 H         135.5131  224.6079   20.8078 H        78      M_A    0.0000
    552 H         135.7567  226.2966   19.0803 H        78      M_A    0.0000
    553 H         134.9390  225.3219   17.8679 H        78      M_A    0.0000
    554 C         133.5856  227.4467   18.8384 C.3      79      M_A    0.0000
    555 C         132.1865  227.6381   18.2613 C.3      79      M_A    0.0000
    556 O         132.1583  228.7658   17.3876 O.3      79      M_A    0.0000
    557 H         133.7864  228.2004   19.6082 H        79      M_A    0.0000
    558 H         134.3340  227.6099   18.0536 H        79      M_A    0.0000
    559 H         131.9121  226.7686   17.6506 H        79      M_A    0.0000
    560 H         131.4227  227.7144   19.0486 H        79      M_A    0.0000
    561 C         131.9231  229.9676   18.0881 C.3      80      M_A    0.0000
    562 C         130.5168  230.0147   18.6774 C.3      80      M_A    0.0000
    563 O         130.3402  231.2012   19.4500 O.3      80      M_A    0.0000
    564 H         132.6719  230.0816   18.8802 H        80      M_A    0.0000
    565 H         132.0680  230.8179   17.4109 H        80      M_A    0.0000
    566 H         129.7747  230.0598   17.8701 H        80      M_A    0.0000
    567 H         130.2832  229.1117   19.2598 H        80      M_A    0.0000
    568 H         130.6927  231.1009   20.3589 H        80      M_A    0.0000
    569 H          37.1693  202.3822   88.8893 H         0      M_A    0.0000
@<TRIPOS>BOND
     1     1     2      1
     2     1     4      1
     3     1     5      1
     4     1   569      1
     5     2     3      1
     6     2     6      1
     7     2     7      1
     8     3     8      1
     9     8     9      1
    10     8    11      1
    11     8    12      1
    12     9    10      1
    13     9    13      1
    14     9    14      1
    15    10    15      1
    16    15    16      1
    17    15    18      1
    18    15    19      1
    19    16    17      1
    20    16    20      1
    21    16    21      1
    22    17    22      1
    23    22    23      1
    24    22    25      1
    25    22    26      1
    26    23    24      1
    27    23    27      1
    28    23    28      1
    29    24    29      1
    30    29    30      1
    31    29    32      1
    32    29    33      1
    33    30    31      1
    34    30    34      1
    35    30    35      1
    36    31    36      1
    37    36    37      1
    38    36    39      1
    39    36    40      1
    40    37    38      1
    41    37    41      1
    42    37    42      1
    43    38    43      1
    44    43    44      1
    45    43    46      1
    46    43    47      1
    47    44    45      1
    48    44    48      1
    49    44    49      1
    50    45    50      1
    51    50    51      1
    52    50    53      1
    53    50    54      1
    54    51    52      1
    55    51    55      1
    56    51    56      1
    57    52    57      1
    58    57    58      1
    59    57    60      1
    60    57    61      1
    61    58    59      1
    62    58    62      1
    63    58    63      1
    64    59    64      1
    65    64    65      1
    66    64    67      1
    67    64    68      1
    68    65    66      1
    69    65    69      1
    70    65    70      1
    71    66    71      1
    72    71    72      1
    73    71    74      1
    74    71    75      1
    75    72    73      1
    76    72    76      1
    77    72    77      1
    78    73    78      1
    79    78    79      1
    80    78    81      1
    81    78    82      1
    82    79    80      1
    83    79    83      1
    84    79    84      1
    85    80    85      1
    86    85    86      1
    87    85    88      1
    88    85    89      1
    89    86    87      1
    90    86    90      1
    91    86    91      1
    92    87    92      1
    93    92    93      1
    94    92    95      1
    95    92    96      1
    96    93    94      1
    97    93    97      1
    98    93    98      1
    99    94    99      1
   100    99   100      1
   101    99   102      1
   102    99   103      1
   103   100   101      1
   104   100   104      1
   105   100   105      1
   106   101   106      1
   107   106   107      1
   108   106   109      1
   109   106   110      1
   110   107   108      1
   111   107   111      1
   112   107   112      1
   113   108   113      1
   114   113   114      1
   115   113   116      1
   116   113   117      1
   117   114   115      1
   118   114   118      1
   119   114   119      1
   120   115   120      1
   121   120   121      1
   122   120   123      1
   123   120   124      1
   124   121   122      1
   125   121   125      1
   126   121   126      1
   127   122   127      1
   128   127   128      1
   129   127   130      1
   130   127   131      1
   131   128   129      1
   132   128   132      1
   133   128   133      1
   134   129   134      1
   135   134   135      1
   136   134   137      1
   137   134   138      1
   138   135   136      1
   139   135   139      1
   140   135   140      1
   141   136   141      1
   142   141   142      1
   143   141   144      1
   144   141   145      1
   145   142   143      1
   146   142   146      1
   147   142   147      1
   148   143   148      1
   149   148   149      1
   150   148   151      1
   151   148   152      1
   152   149   150      1
   153   149   153      1
   154   149   154      1
   155   150   155      1
   156   155   156      1
   157   155   158      1
   158   155   159      1
   159   156   157      1
   160   156   160      1
   161   156   161      1
   162   157   162      1
   163   162   163      1
   164   162   165      1
   165   162   166      1
   166   163   164      1
   167   163   167      1
   168   163   168      1
   169   164   169      1
   170   169   170      1
   171   169   172      1
   172   169   173      1
   173   170   171      1
   174   170   174      1
   175   170   175      1
   176   171   176      1
   177   176   177      1
   178   176   179      1
   179   176   180      1
   180   177   178      1
   181   177   181      1
   182   177   182      1
   183   178   183      1
   184   183   184      1
   185   183   186      1
   186   183   187      1
   187   184   185      1
   188   184   188      1
   189   184   189      1
   190   185   190      1
   191   190   191      1
   192   190   193      1
   193   190   194      1
   194   191   192      1
   195   191   195      1
   196   191   196      1
   197   192   197      1
   198   197   198      1
   199   197   200      1
   200   197   201      1
   201   198   199      1
   202   198   202      1
   203   198   203      1
   204   199   204      1
   205   204   205      1
   206   204   207      1
   207   204   208      1
   208   205   206      1
   209   205   209      1
   210   205   210      1
   211   206   211      1
   212   211   212      1
   213   211   214      1
   214   211   215      1
   215   212   213      1
   216   212   216      1
   217   212   217      1
   218   213   218      1
   219   218   219      1
   220   218   221      1
   221   218   222      1
   222   219   220      1
   223   219   223      1
   224   219   224      1
   225   220   225      1
   226   225   226      1
   227   225   228      1
   228   225   229      1
   229   226   227      1
   230   226   230      1
   231   226   231      1
   232   227   232      1
   233   232   233      1
   234   232   235      1
   235   232   236      1
   236   233   234      1
   237   233   237      1
   238   233   238      1
   239   234   239      1
   240   239   240      1
   241   239   242      1
   242   239   243      1
   243   240   241      1
   244   240   244      1
   245   240   245      1
   246   241   246      1
   247   246   247      1
   248   246   249      1
   249   246   250      1
   250   247   248      1
   251   247   251      1
   252   247   252      1
   253   248   253      1
   254   253   254      1
   255   253   256      1
   256   253   257      1
   257   254   255      1
   258   254   258      1
   259   254   259      1
   260   255   260      1
   261   260   261      1
   262   260   263      1
   263   260   264      1
   264   261   262      1
   265   261   265      1
   266   261   266      1
   267   262   267      1
   268   267   268      1
   269   267   270      1
   270   267   271      1
   271   268   269      1
   272   268   272      1
   273   268   273      1
   274   269   274      1
   275   274   275      1
   276   274   277      1
   277   274   278      1
   278   275   276      1
   279   275   279      1
   280   275   280      1
   281   276   281      1
   282   281   282      1
   283   281   284      1
   284   281   285      1
   285   282   283      1
   286   282   286      1
   287   282   287      1
   288   283   288      1
   289   288   289      1
   290   288   291      1
   291   288   292      1
   292   289   290      1
   293   289   293      1
   294   289   294      1
   295   290   295      1
   296   295   296      1
   297   295   298      1
   298   295   299      1
   299   296   297      1
   300   296   300      1
   301   296   301      1
   302   297   302      1
   303   302   303      1
   304   302   305      1
   305   302   306      1
   306   303   304      1
   307   303   307      1
   308   303   308      1
   309   304   309      1
   310   309   310      1
   311   309   312      1
   312   309   313      1
   313   310   311      1
   314   310   314      1
   315   310   315      1
   316   311   316      1
   317   316   317      1
   318   316   319      1
   319   316   320      1
   320   317   318      1
   321   317   321      1
   322   317   322      1
   323   318   323      1
   324   323   324      1
   325   323   326      1
   326   323   327      1
   327   324   325      1
   328   324   328      1
   329   324   329      1
   330   325   330      1
   331   330   331      1
   332   330   333      1
   333   330   334      1
   334   331   332      1
   335   331   335      1
   336   331   336      1
   337   332   337      1
   338   337   338      1
   339   337   340      1
   340   337   341      1
   341   338   339      1
   342   338   342      1
   343   338   343      1
   344   339   344      1
   345   344   345      1
   346   344   347      1
   347   344   348      1
   348   345   346      1
   349   345   349      1
   350   345   350      1
   351   346   351      1
   352   351   352      1
   353   351   354      1
   354   351   355      1
   355   352   353      1
   356   352   356      1
   357   352   357      1
   358   353   358      1
   359   358   359      1
   360   358   361      1
   361   358   362      1
   362   359   360      1
   363   359   363      1
   364   359   364      1
   365   360   365      1
   366   365   366      1
   367   365   368      1
   368   365   369      1
   369   366   367      1
   370   366   370      1
   371   366   371      1
   372   367   372      1
   373   372   373      1
   374   372   375      1
   375   372   376      1
   376   373   374      1
   377   373   377      1
   378   373   378      1
   379   374   379      1
   380   379   380      1
   381   379   382      1
   382   379   383      1
   383   380   381      1
   384   380   384      1
   385   380   385      1
   386   381   386      1
   387   386   387      1
   388   386   389      1
   389   386   390      1
   390   387   388      1
   391   387   391      1
   392   387   392      1
   393   388   393      1
   394   393   394      1
   395   393   396      1
   396   393   397      1
   397   394   395      1
   398   394   398      1
   399   394   399      1
   400   395   400      1
   401   400   401      1
   402   400   403      1
   403   400   404      1
   404   401   402      1
   405   401   405      1
   406   401   406      1
   407   402   407      1
   408   407   408      1
   409   407   410      1
   410   407   411      1
   411   408   409      1
   412   408   412      1
   413   408   413      1
   414   409   414      1
   415   414   415      1
   416   414   417      1
   417   414   418      1
   418   415   416      1
   419   415   419      1
   420   415   420      1
   421   416   421      1
   422   421   422      1
   423   421   424      1
   424   421   425      1
   425   422   423      1
   426   422   426      1
   427   422   427      1
   428   423   428      1
   429   428   429      1
   430   428   431      1
   431   428   432      1
   432   429   430      1
   433   429   433      1
   434   429   434      1
   435   430   435      1
   436   435   436      1
   437   435   438      1
   438   435   439      1
   439   436   437      1
   440   436   440      1
   441   436   441      1
   442   437   442      1
   443   442   443      1
   444   442   445      1
   445   442   446      1
   446   443   444      1
   447   443   447      1
   448   443   448      1
   449   444   449      1
   450   449   450      1
   451   449   452      1
   452   449   453      1
   453   450   451      1
   454   450   454      1
   455   450   455      1
   456   451   456      1
   457   456   457      1
   458   456   459      1
   459   456   460      1
   460   457   458      1
   461   457   461      1
   462   457   462      1
   463   458   463      1
   464   463   464      1
   465   463   466      1
   466   463   467      1
   467   464   465      1
   468   464   468      1
   469   464   469      1
   470   465   470      1
   471   470   471      1
   472   470   473      1
   473   470   474      1
   474   471   472      1
   475   471   475      1
   476   471   476      1
   477   472   477      1
   478   477   478      1
   479   477   480      1
   480   477   481      1
   481   478   479      1
   482   478   482      1
   483   478   483      1
   484   479   484      1
   485   484   485      1
   486   484   487      1
   487   484   488      1
   488   485   486      1
   489   485   489      1
   490   485   490      1
   491   486   491      1
   492   491   492      1
   493   491   494      1
   494   491   495      1
   495   492   493      1
   496   492   496      1
   497   492   497      1
   498   493   498      1
   499   498   499      1
   500   498   501      1
   501   498   502      1
   502   499   500      1
   503   499   503      1
   504   499   504      1
   505   500   505      1
   506   505   506      1
   507   505   508      1
   508   505   509      1
   509   506   507      1
   510   506   510      1
   511   506   511      1
   512   507   512      1
   513   512   513      1
   514   512   515      1
   515   512   516      1
   516   513   514      1
   517   513   517      1
   518   513   518      1
   519   514   519      1
   520   519   520      1
   521   519   522      1
   522   519   523      1
   523   520   521      1
   524   520   524      1
   525   520   525      1
   526   521   526      1
   527   526   527      1
   528   526   529      1
   529   526   530      1
   530   527   528      1
   531   527   531      1
   532   527   532      1
   533   528   533      1
   534   533   534      1
   535   533   536      1
   536   533   537      1
   537   534   535      1
   538   534   538      1
   539   534   539      1
   540   535   540      1
   541   540   541      1
   542   540   543      1
   543   540   544      1
   544   541   542      1
   545   541   545      1
   546   541   546      1
   547   542   547      1
   548   547   548      1
   549   547   550      1
   550   547   551      1
   551   548   549      1
   552   548   552      1
   553   548   553      1
   554   549   554      1
   555   554   555      1
   556   554   557      1
   557   554   558      1
   558   555   556      1
   559   555   559      1
   560   555   560      1
   561   556   561      1
   562   561   562      1
   563   561   564      1
   564   561   565      1
   565   562   563      1
   566   562   566      1
   567   562   567      1
   568   563   568      1
