###
### Created by PolyChef-cpp17 on Mon May 12 10:39:11 2025
###

@<TRIPOS>MOLECULE
NO_INFO
191 190 1 0 0
SMALL
USER_CHARGES


@<TRIPOS>ATOM
      1 C         166.7511   39.8611   30.3569 C.3       0      M_A    0.0000
      2 C         165.9976   40.8065   29.4265 C.3       0      M_A    0.0000
      3 O         166.9016   41.7190   28.8052 O.3       0      M_A    0.0000
      4 H         167.3150   40.4427   31.0961 H         0      M_A    0.0000
      5 H         167.4950   39.2858   29.7943 H         0      M_A    0.0000
      6 H         165.2929   41.4173   30.0051 H         0      M_A    0.0000
      7 H         165.3955   40.2620   28.6847 H         0      M_A    0.0000
      8 C         167.9307   41.0486   28.1111 C.3       1      M_A    0.0000
      9 C         169.3114   41.4352   28.6321 C.3       1      M_A    0.0000
     10 O         170.2648   40.4221   28.3151 O.3       1      M_A    0.0000
     11 H         167.7896   39.9655   28.2083 H         1      M_A    0.0000
     12 H         167.8526   41.2682   27.0403 H         1      M_A    0.0000
     13 H         169.2910   41.5068   29.7270 H         1      M_A    0.0000
     14 H         169.6292   42.4219   28.2652 H         1      M_A    0.0000
     15 C         169.6422   39.2038   27.9708 C.3       2      M_A    0.0000
     16 C         170.6625   38.1211   27.6330 C.3       2      M_A    0.0000
     17 O         170.0332   36.8415   27.5849 O.3       2      M_A    0.0000
     18 H         169.0114   38.8695   28.8032 H         2      M_A    0.0000
     19 H         168.9647   39.3658   27.1248 H         2      M_A    0.0000
     20 H         171.4203   38.0618   28.4246 H         2      M_A    0.0000
     21 H         171.2059   38.3423   26.7029 H         2      M_A    0.0000
     22 C         170.4365   36.0996   26.4547 C.3       3      M_A    0.0000
     23 C         169.4738   34.9550   26.1545 C.3       3      M_A    0.0000
     24 O         168.8813   35.1271   24.8680 O.3       3      M_A    0.0000
     25 H         170.5001   36.7657   25.5859 H         3      M_A    0.0000
     26 H         171.4497   35.7133   26.6136 H         3      M_A    0.0000
     27 H         168.6478   34.9621   26.8772 H         3      M_A    0.0000
     28 H         169.9583   33.9726   26.2510 H         3      M_A    0.0000
     29 C         168.3175   33.9277   24.3843 C.3       4      M_A    0.0000
     30 C         167.7060   33.0953   25.5069 C.3       4      M_A    0.0000
     31 O         166.2817   33.1202   25.4261 O.3       4      M_A    0.0000
     32 H         167.5490   34.1619   23.6379 H         4      M_A    0.0000
     33 H         169.0847   33.3500   23.8563 H         4      M_A    0.0000
     34 H         167.9668   33.5310   26.4798 H         4      M_A    0.0000
     35 H         168.0949   32.0667   25.5163 H         4      M_A    0.0000
     36 C         165.7006   33.7055   26.5707 C.3       5      M_A    0.0000
     37 C         164.1946   33.4685   26.6263 C.3       5      M_A    0.0000
     38 O         163.6926   33.7595   27.9299 O.3       5      M_A    0.0000
     39 H         166.1726   33.2922   27.4702 H         5      M_A    0.0000
     40 H         165.9177   34.7796   26.5822 H         5      M_A    0.0000
     41 H         163.9760   32.4090   26.4417 H         5      M_A    0.0000
     42 H         163.6594   34.0330   25.8491 H         5      M_A    0.0000
     43 C         162.2881   33.8921   27.9346 C.3       6      M_A    0.0000
     44 C         161.6605   33.3248   26.6652 C.3       6      M_A    0.0000
     45 O         160.3097   32.9352   26.9087 O.3       6      M_A    0.0000
     46 H         161.8769   33.3774   28.8113 H         6      M_A    0.0000
     47 H         162.0211   34.9485   28.0521 H         6      M_A    0.0000
     48 H         162.1929   32.4151   26.3595 H         6      M_A    0.0000
     49 H         161.7360   34.0240   25.8198 H         6      M_A    0.0000
     50 C         159.6673   33.8047   27.8151 C.3       7      M_A    0.0000
     51 C         158.1950   34.0005   27.4666 C.3       7      M_A    0.0000
     52 O         157.3656   33.5405   28.5326 O.3       7      M_A    0.0000
     53 H         159.7554   33.4013   28.8311 H         7      M_A    0.0000
     54 H         160.1872   34.7693   27.8273 H         7      M_A    0.0000
     55 H         157.9346   33.3937   26.5901 H         7      M_A    0.0000
     56 H         157.9702   35.0426   27.1970 H         7      M_A    0.0000
     57 C         156.0856   33.1613   28.0763 C.3       8      M_A    0.0000
     58 C         155.5699   34.0995   26.9896 C.3       8      M_A    0.0000
     59 O         154.4040   33.5545   26.3734 O.3       8      M_A    0.0000
     60 H         156.1261   32.1358   27.6897 H         8      M_A    0.0000
     61 H         155.3883   33.1379   28.9215 H         8      M_A    0.0000
     62 H         156.3201   34.1990   26.1949 H         8      M_A    0.0000
     63 H         155.3907   35.1147   27.3723 H         8      M_A    0.0000
     64 C         153.3540   33.3782   27.2990 C.3       9      M_A    0.0000
     65 C         152.2165   32.5466   26.7146 C.3       9      M_A    0.0000
     66 O         151.0924   33.3757   26.4229 O.3       9      M_A    0.0000
     67 H         153.7422   32.8902   28.2011 H         9      M_A    0.0000
     68 H         152.9829   34.3576   27.6217 H         9      M_A    0.0000
     69 H         151.8732   31.8114   27.4536 H         9      M_A    0.0000
     70 H         152.5367   31.9710   25.8340 H         9      M_A    0.0000
     71 C         151.1962   33.9727   25.1489 C.3      10      M_A    0.0000
     72 C         152.6234   34.4187   24.8462 C.3      10      M_A    0.0000
     73 O         152.7164   34.9193   23.5133 O.3      10      M_A    0.0000
     74 H         150.8624   33.2604   24.3849 H        10      M_A    0.0000
     75 H         150.5099   34.8248   25.0875 H        10      M_A    0.0000
     76 H         153.3030   33.5588   24.9001 H        10      M_A    0.0000
     77 H         152.9920   35.1486   25.5814 H        10      M_A    0.0000
     78 C         152.0745   36.1680   23.3749 C.3      11      M_A    0.0000
     79 C         150.6297   36.0145   22.9098 C.3      11      M_A    0.0000
     80 O         149.8348   37.0986   23.3882 O.3      11      M_A    0.0000
     81 H         152.0988   36.6981   24.3346 H        11      M_A    0.0000
     82 H         152.6368   36.7921   22.6711 H        11      M_A    0.0000
     83 H         150.1946   35.1020   23.3369 H        11      M_A    0.0000
     84 H         150.5572   35.9080   21.8178 H        11      M_A    0.0000
     85 C         150.5212   38.3286   23.3088 C.3      12      M_A    0.0000
     86 C         149.5727   39.4905   23.0302 C.3      12      M_A    0.0000
     87 O         149.3863   40.2744   24.2077 O.3      12      M_A    0.0000
     88 H         151.0576   38.5074   24.2485 H        12      M_A    0.0000
     89 H         151.2894   38.2689   22.5295 H        12      M_A    0.0000
     90 H         148.5818   39.1064   22.7561 H        12      M_A    0.0000
     91 H         149.9101   40.1040   22.1823 H        12      M_A    0.0000
     92 C         148.8125   41.5302   23.9176 C.3      13      M_A    0.0000
     93 C         147.6231   41.4052   22.9706 C.3      13      M_A    0.0000
     94 O         146.4108   41.2649   23.7097 O.3      13      M_A    0.0000
     95 H         148.4922   42.0084   24.8511 H        13      M_A    0.0000
     96 H         149.5746   42.1896   23.4868 H        13      M_A    0.0000
     97 H         147.7216   40.4951   22.3652 H        13      M_A    0.0000
     98 H         147.5718   42.2430   22.2602 H        13      M_A    0.0000
     99 C         146.0548   39.9108   23.8834 C.3      14      M_A    0.0000
    100 C         145.5436   39.2881   22.5880 C.3      14      M_A    0.0000
    101 O         144.1219   39.3857   22.5157 O.3      14      M_A    0.0000
    102 H         146.9248   39.3493   24.2446 H        14      M_A    0.0000
    103 H         145.2959   39.8303   24.6700 H        14      M_A    0.0000
    104 H         145.7799   38.2165   22.5699 H        14      M_A    0.0000
    105 H         146.0268   39.7246   21.7019 H        14      M_A    0.0000
    106 C         143.5498   39.6667   23.7744 C.3      15      M_A    0.0000
    107 C         142.2631   40.4757   23.6446 C.3      15      M_A    0.0000
    108 O         141.6936   40.7152   24.9308 O.3      15      M_A    0.0000
    109 H         143.3428   38.7258   24.2982 H        15      M_A    0.0000
    110 H         144.2764   40.2038   24.3945 H        15      M_A    0.0000
    111 H         141.5168   39.9028   23.0794 H        15      M_A    0.0000
    112 H         142.4186   41.4113   23.0881 H        15      M_A    0.0000
    113 C         140.5089   41.4767   24.8475 C.3      16      M_A    0.0000
    114 C         139.9435   41.4929   23.4307 C.3      16      M_A    0.0000
    115 O         138.6089   41.9975   23.4329 O.3      16      M_A    0.0000
    116 H         139.7626   41.0654   25.5378 H        16      M_A    0.0000
    117 H         140.7063   42.4987   25.1904 H        16      M_A    0.0000
    118 H         139.8848   40.4690   23.0401 H        16      M_A    0.0000
    119 H         140.5880   42.0506   22.7359 H        16      M_A    0.0000
    120 C         138.5022   43.1981   24.1661 C.3      17      M_A    0.0000
    121 C         137.1577   43.8827   23.9407 C.3      17      M_A    0.0000
    122 O         136.4977   44.1059   25.1859 O.3      17      M_A    0.0000
    123 H         138.6335   42.9854   25.2338 H        17      M_A    0.0000
    124 H         139.3226   43.8697   23.8890 H        17      M_A    0.0000
    125 H         136.4986   43.2284   23.3559 H        17      M_A    0.0000
    126 H         137.2601   44.8123   23.3623 H        17      M_A    0.0000
    127 C         136.8999   45.3187   25.7838 C.3      18      M_A    0.0000
    128 C         135.7074   46.2107   26.1149 C.3      18      M_A    0.0000
    129 O         135.1508   45.8495   27.3780 O.3      18      M_A    0.0000
    130 H         137.4649   45.1036   26.6988 H        18      M_A    0.0000
    131 H         137.5938   45.8427   25.1168 H        18      M_A    0.0000
    132 H         134.9118   46.0611   25.3739 H        18      M_A    0.0000
    133 H         135.9676   47.2784   26.0755 H        18      M_A    0.0000
    134 C         135.1116   44.4503   27.5542 C.3      19      M_A    0.0000
    135 C         133.7377   43.8753   27.2240 C.3      19      M_A    0.0000
    136 O         133.3273   42.9549   28.2341 O.3      19      M_A    0.0000
    137 H         135.8707   43.9817   26.9163 H        19      M_A    0.0000
    138 H         135.3898   44.2037   28.5852 H        19      M_A    0.0000
    139 H         133.7869   43.3038   26.2884 H        19      M_A    0.0000
    140 H         132.9884   44.6640   27.0637 H        19      M_A    0.0000
    141 C         132.1005   43.3308   28.8205 C.3      20      M_A    0.0000
    142 C         130.9725   43.3786   27.7945 C.3      20      M_A    0.0000
    143 O         129.7460   42.9477   28.3825 O.3      20      M_A    0.0000
    144 H         131.8451   42.6212   29.6167 H        20      M_A    0.0000
    145 H         132.2123   44.3053   29.3092 H        20      M_A    0.0000
    146 H         131.1831   42.6798   26.9748 H        20      M_A    0.0000
    147 H         130.8757   44.3725   27.3341 H        20      M_A    0.0000
    148 C         129.9539   41.9585   29.3666 C.3      21      M_A    0.0000
    149 C         128.7702   41.8523   30.3231 C.3      21      M_A    0.0000
    150 O         128.4507   40.4837   30.5699 O.3      21      M_A    0.0000
    151 H         130.1228   40.9905   28.8797 H        21      M_A    0.0000
    152 H         130.8726   42.1817   29.9210 H        21      M_A    0.0000
    153 H         127.8785   42.2987   29.8650 H        21      M_A    0.0000
    154 H         128.9448   42.4042   31.2580 H        21      M_A    0.0000
    155 C         127.2482   40.3473   31.2948 C.3      22      M_A    0.0000
    156 C         127.0736   38.9345   31.8431 C.3      22      M_A    0.0000
    157 O         126.9876   38.9601   33.2671 O.3      22      M_A    0.0000
    158 H         127.2378   41.0678   32.1216 H        22      M_A    0.0000
    159 H         126.4016   40.6136   30.6519 H        22      M_A    0.0000
    160 H         127.9546   38.3273   31.5988 H        22      M_A    0.0000
    161 H         126.2117   38.4210   31.3928 H        22      M_A    0.0000
    162 C         126.1846   37.9119   33.7640 C.3      23      M_A    0.0000
    163 C         126.6741   36.5478   33.2880 C.3      23      M_A    0.0000
    164 O         127.6488   36.0259   34.1900 O.3      23      M_A    0.0000
    165 H         126.1845   37.9419   34.8603 H        23      M_A    0.0000
    166 H         125.1446   38.0715   33.4576 H        23      M_A    0.0000
    167 H         127.1760   36.6487   32.3172 H        23      M_A    0.0000
    168 H         125.8444   35.8429   33.1334 H        23      M_A    0.0000
    169 C         127.8665   34.6467   33.9882 C.3      24      M_A    0.0000
    170 C         128.0376   34.3099   32.5102 C.3      24      M_A    0.0000
    171 O         129.4040   34.4478   32.1231 O.3      24      M_A    0.0000
    172 H         128.7589   34.3340   34.5436 H        24      M_A    0.0000
    173 H         127.0315   34.0787   34.4140 H        24      M_A    0.0000
    174 H         127.4706   35.0215   31.8966 H        24      M_A    0.0000
    175 H         127.6446   33.3122   32.2664 H        24      M_A    0.0000
    176 C         129.7813   35.8016   32.0000 C.3      25      M_A    0.0000
    177 C         129.9662   36.4649   33.3612 C.3      25      M_A    0.0000
    178 O         131.3259   36.8568   33.5436 O.3      25      M_A    0.0000
    179 H         130.7140   35.8688   31.4271 H        25      M_A    0.0000
    180 H         129.0276   36.3392   31.4136 H        25      M_A    0.0000
    181 H         129.7430   35.7465   34.1603 H        25      M_A    0.0000
    182 H         129.2767   37.3093   33.5055 H        25      M_A    0.0000
    183 C         131.8951   37.3504   32.3508 C.3      26      M_A    0.0000
    184 C         130.9559   37.1791   31.1609 C.3      26      M_A    0.0000
    185 O         131.2758   38.1176   30.1349 O.3      26      M_A    0.0000
    186 H         132.1410   38.4117   32.4769 H        26      M_A    0.0000
    187 H         132.8466   36.8406   32.1615 H        26      M_A    0.0000
    188 H         129.9240   37.3955   31.4652 H        26      M_A    0.0000
    189 H         130.9547   36.1468   30.7819 H        26      M_A    0.0000
    190 H         132.0121   37.8035   29.5695 H        26      M_A    0.0000
    191 H         166.0768   39.1774   30.8727 H         0      M_A    0.0000
@<TRIPOS>BOND
     1     1     2      1
     2     1     4      1
     3     1     5      1
     4     1   191      1
     5     2     3      1
     6     2     6      1
     7     2     7      1
     8     3     8      1
     9     8     9      1
    10     8    11      1
    11     8    12      1
    12     9    10      1
    13     9    13      1
    14     9    14      1
    15    10    15      1
    16    15    16      1
    17    15    18      1
    18    15    19      1
    19    16    17      1
    20    16    20      1
    21    16    21      1
    22    17    22      1
    23    22    23      1
    24    22    25      1
    25    22    26      1
    26    23    24      1
    27    23    27      1
    28    23    28      1
    29    24    29      1
    30    29    30      1
    31    29    32      1
    32    29    33      1
    33    30    31      1
    34    30    34      1
    35    30    35      1
    36    31    36      1
    37    36    37      1
    38    36    39      1
    39    36    40      1
    40    37    38      1
    41    37    41      1
    42    37    42      1
    43    38    43      1
    44    43    44      1
    45    43    46      1
    46    43    47      1
    47    44    45      1
    48    44    48      1
    49    44    49      1
    50    45    50      1
    51    50    51      1
    52    50    53      1
    53    50    54      1
    54    51    52      1
    55    51    55      1
    56    51    56      1
    57    52    57      1
    58    57    58      1
    59    57    60      1
    60    57    61      1
    61    58    59      1
    62    58    62      1
    63    58    63      1
    64    59    64      1
    65    64    65      1
    66    64    67      1
    67    64    68      1
    68    65    66      1
    69    65    69      1
    70    65    70      1
    71    66    71      1
    72    71    72      1
    73    71    74      1
    74    71    75      1
    75    72    73      1
    76    72    76      1
    77    72    77      1
    78    73    78      1
    79    78    79      1
    80    78    81      1
    81    78    82      1
    82    79    80      1
    83    79    83      1
    84    79    84      1
    85    80    85      1
    86    85    86      1
    87    85    88      1
    88    85    89      1
    89    86    87      1
    90    86    90      1
    91    86    91      1
    92    87    92      1
    93    92    93      1
    94    92    95      1
    95    92    96      1
    96    93    94      1
    97    93    97      1
    98    93    98      1
    99    94    99      1
   100    99   100      1
   101    99   102      1
   102    99   103      1
   103   100   101      1
   104   100   104      1
   105   100   105      1
   106   101   106      1
   107   106   107      1
   108   106   109      1
   109   106   110      1
   110   107   108      1
   111   107   111      1
   112   107   112      1
   113   108   113      1
   114   113   114      1
   115   113   116      1
   116   113   117      1
   117   114   115      1
   118   114   118      1
   119   114   119      1
   120   115   120      1
   121   120   121      1
   122   120   123      1
   123   120   124      1
   124   121   122      1
   125   121   125      1
   126   121   126      1
   127   122   127      1
   128   127   128      1
   129   127   130      1
   130   127   131      1
   131   128   129      1
   132   128   132      1
   133   128   133      1
   134   129   134      1
   135   134   135      1
   136   134   137      1
   137   134   138      1
   138   135   136      1
   139   135   139      1
   140   135   140      1
   141   136   141      1
   142   141   142      1
   143   141   144      1
   144   141   145      1
   145   142   143      1
   146   142   146      1
   147   142   147      1
   148   143   148      1
   149   148   149      1
   150   148   151      1
   151   148   152      1
   152   149   150      1
   153   149   153      1
   154   149   154      1
   155   150   155      1
   156   155   156      1
   157   155   158      1
   158   155   159      1
   159   156   157      1
   160   156   160      1
   161   156   161      1
   162   157   162      1
   163   162   163      1
   164   162   165      1
   165   162   166      1
   166   163   164      1
   167   163   167      1
   168   163   168      1
   169   164   169      1
   170   169   170      1
   171   169   172      1
   172   169   173      1
   173   170   171      1
   174   170   174      1
   175   170   175      1
   176   171   176      1
   177   176   177      1
   178   176   179      1
   179   176   180      1
   180   177   178      1
   181   177   181      1
   182   177   182      1
   183   178   183      1
   184   183   184      1
   185   183   186      1
   186   183   187      1
   187   184   185      1
   188   184   188      1
   189   184   189      1
   190   185   190      1
