###
### Created by PolyChef-cpp17 on Mon May 12 10:39:07 2025
###

@<TRIPOS>MOLECULE
NO_INFO
968 967 1 0 0
SMALL
USER_CHARGES


@<TRIPOS>ATOM
      1 C         147.4762   97.6489   71.3840 C.3       0      M_A    0.0000
      2 C         148.0240   98.4594   72.5520 C.3       0      M_A    0.0000
      3 O         148.3710   99.7614   72.0827 O.3       0      M_A    0.0000
      4 H         147.0578   98.3183   70.6238 H         0      M_A    0.0000
      5 H         148.2969   97.0902   70.9199 H         0      M_A    0.0000
      6 H         148.9190   97.9468   72.9317 H         0      M_A    0.0000
      7 H         147.2899   98.5359   73.3653 H         0      M_A    0.0000
      8 C         149.1373   99.6782   70.9001 C.3       1      M_A    0.0000
      9 C         150.3818  100.5561   70.9430 C.3       1      M_A    0.0000
     10 O         150.6822  100.9892   69.6171 O.3       1      M_A    0.0000
     11 H         148.5072   99.9586   70.0484 H         1      M_A    0.0000
     12 H         149.4402   98.6343   70.7604 H         1      M_A    0.0000
     13 H         151.2109   99.9517   71.3371 H         1      M_A    0.0000
     14 H         150.2362  101.4249   71.5988 H         1      M_A    0.0000
     15 C         151.9740  101.5552   69.5573 C.3       2      M_A    0.0000
     16 C         151.9502  103.0784   69.5818 C.3       2      M_A    0.0000
     17 O         153.0452  103.5657   68.8076 O.3       2      M_A    0.0000
     18 H         152.4752  101.2005   68.6495 H         2      M_A    0.0000
     19 H         152.5477  101.1922   70.4175 H         2      M_A    0.0000
     20 H         152.0554  103.4034   70.6265 H         2      M_A    0.0000
     21 H         151.0044  103.4703   69.1843 H         2      M_A    0.0000
     22 C         153.2711  104.9344   69.0684 C.3       3      M_A    0.0000
     23 C         151.9921  105.7610   69.0201 C.3       3      M_A    0.0000
     24 O         152.1585  106.8059   68.0628 O.3       3      M_A    0.0000
     25 H         153.9963  105.3191   68.3423 H         3      M_A    0.0000
     26 H         153.7181  105.0246   70.0649 H         3      M_A    0.0000
     27 H         151.8263  106.1898   70.0184 H         3      M_A    0.0000
     28 H         151.1251  105.1416   68.7541 H         3      M_A    0.0000
     29 C         150.9116  107.1976   67.5293 C.3       4      M_A    0.0000
     30 C         150.9843  108.5187   66.7738 C.3       4      M_A    0.0000
     31 O         149.7691  109.2353   66.9872 O.3       4      M_A    0.0000
     32 H         150.1832  107.2693   68.3450 H         4      M_A    0.0000
     33 H         150.5693  106.4125   66.8455 H         4      M_A    0.0000
     34 H         151.1039  108.2930   65.7048 H         4      M_A    0.0000
     35 H         151.8401  109.1222   67.1045 H         4      M_A    0.0000
     36 C         149.9653  110.6198   66.7940 C.3       5      M_A    0.0000
     37 C         149.2410  111.1500   65.5629 C.3       5      M_A    0.0000
     38 O         149.9018  112.3336   65.1175 O.3       5      M_A    0.0000
     39 H         151.0402  110.8181   66.7137 H         5      M_A    0.0000
     40 H         149.5952  111.1458   67.6813 H         5      M_A    0.0000
     41 H         148.2065  111.3839   65.8512 H         5      M_A    0.0000
     42 H         149.2223  110.4038   64.7573 H         5      M_A    0.0000
     43 C         149.2373  112.8868   64.0018 C.3       6      M_A    0.0000
     44 C         149.4076  114.3978   63.9058 C.3       6      M_A    0.0000
     45 O         148.4658  114.9053   62.9617 O.3       6      M_A    0.0000
     46 H         148.1734  112.6301   64.0591 H         6      M_A    0.0000
     47 H         149.6432  112.4225   63.0959 H         6      M_A    0.0000
     48 H         150.4311  114.6036   63.5623 H         6      M_A    0.0000
     49 H         149.2595  114.8799   64.8813 H         6      M_A    0.0000
     50 C         149.0516  115.9117   62.1637 C.3       7      M_A    0.0000
     51 C         149.8000  116.9531   62.9864 C.3       7      M_A    0.0000
     52 O         150.1961  118.0188   62.1244 O.3       7      M_A    0.0000
     53 H         148.2678  116.3936   61.5683 H         7      M_A    0.0000
     54 H         149.7513  115.4343   61.4685 H         7      M_A    0.0000
     55 H         150.6878  116.4709   63.4190 H         7      M_A    0.0000
     56 H         149.1767  117.3415   63.8029 H         7      M_A    0.0000
     57 C         149.9740  117.6768   60.7729 C.3       8      M_A    0.0000
     58 C         151.2543  117.2787   60.0492 C.3       8      M_A    0.0000
     59 O         151.3361  118.0114   58.8276 O.3       8      M_A    0.0000
     60 H         149.5021  118.5255   60.2650 H         8      M_A    0.0000
     61 H         149.2700  116.8376   60.7427 H         8      M_A    0.0000
     62 H         151.2046  116.2013   59.8378 H         8      M_A    0.0000
     63 H         152.1409  117.4762   60.6665 H         8      M_A    0.0000
     64 C         152.3057  117.4471   57.9708 C.3       9      M_A    0.0000
     65 C         153.0626  118.4971   57.1671 C.3       9      M_A    0.0000
     66 O         152.9547  118.1777   55.7807 O.3       9      M_A    0.0000
     67 H         151.8132  116.7382   57.2956 H         9      M_A    0.0000
     68 H         153.0181  116.8830   58.5834 H         9      M_A    0.0000
     69 H         154.1165  118.4687   57.4777 H         9      M_A    0.0000
     70 H         152.6674  119.5048   57.3529 H         9      M_A    0.0000
     71 C         154.0650  118.6762   55.0656 C.3      10      M_A    0.0000
     72 C         153.7107  119.8693   54.1868 C.3      10      M_A    0.0000
     73 O         154.5126  119.8232   53.0075 O.3      10      M_A    0.0000
     74 H         154.4849  117.8692   54.4544 H        10      M_A    0.0000
     75 H         154.8309  118.9790   55.7886 H        10      M_A    0.0000
     76 H         153.9289  120.7856   54.7531 H        10      M_A    0.0000
     77 H         152.6459  119.8661   53.9180 H        10      M_A    0.0000
     78 C         154.5573  121.0889   52.3842 C.3      11      M_A    0.0000
     79 C         154.0198  121.0615   50.9588 C.3      11      M_A    0.0000
     80 O         154.3865  122.2772   50.3080 O.3      11      M_A    0.0000
     81 H         155.5916  121.4512   52.3902 H        11      M_A    0.0000
     82 H         153.9571  121.7859   52.9798 H        11      M_A    0.0000
     83 H         152.9250  120.9788   51.0096 H        11      M_A    0.0000
     84 H         154.4126  120.2019   50.3994 H        11      M_A    0.0000
     85 C         155.1537  123.0922   51.1681 C.3      12      M_A    0.0000
     86 C         155.6133  124.3824   50.5005 C.3      12      M_A    0.0000
     87 O         157.0297  124.3330   50.3358 O.3      12      M_A    0.0000
     88 H         156.0200  122.5204   51.5198 H        12      M_A    0.0000
     89 H         154.5414  123.3400   52.0425 H        12      M_A    0.0000
     90 H         155.3410  125.2208   51.1570 H        12      M_A    0.0000
     91 H         155.1259  124.5246   49.5267 H        12      M_A    0.0000
     92 C         157.4280  125.0857   49.2100 C.3      13      M_A    0.0000
     93 C         157.1578  124.3647   47.8952 C.3      13      M_A    0.0000
     94 O         158.2924  124.5233   47.0448 O.3      13      M_A    0.0000
     95 H         158.4949  125.3201   49.2991 H        13      M_A    0.0000
     96 H         156.8773  126.0331   49.2184 H        13      M_A    0.0000
     97 H         156.2738  124.8240   47.4309 H        13      M_A    0.0000
     98 H         156.9560  123.2975   48.0582 H        13      M_A    0.0000
     99 C         158.1520  123.7460   45.8748 C.3      14      M_A    0.0000
    100 C         157.8320  122.2867   46.1734 C.3      14      M_A    0.0000
    101 O         157.7966  121.5650   44.9430 O.3      14      M_A    0.0000
    102 H         159.0752  123.8173   45.2884 H        14      M_A    0.0000
    103 H         157.3421  124.1744   45.2736 H        14      M_A    0.0000
    104 H         156.8473  122.2470   46.6600 H        14      M_A    0.0000
    105 H         158.5767  121.8436   46.8481 H        14      M_A    0.0000
    106 C         156.5099  121.6254   44.3655 C.3      15      M_A    0.0000
    107 C         156.3393  120.6510   43.2067 C.3      15      M_A    0.0000
    108 O         156.3182  121.3904   41.9865 O.3      15      M_A    0.0000
    109 H         156.3204  122.6505   44.0273 H        15      M_A    0.0000
    110 H         155.7738  121.3900   45.1425 H        15      M_A    0.0000
    111 H         155.3842  120.1245   43.3428 H        15      M_A    0.0000
    112 H         157.1499  119.9105   43.1840 H        15      M_A    0.0000
    113 C         155.8310  120.5935   40.9281 C.3      16      M_A    0.0000
    114 C         156.4921  119.2219   40.8725 C.3      16      M_A    0.0000
    115 O         157.4818  119.2323   39.8447 O.3      16      M_A    0.0000
    116 H         155.9863  121.1256   39.9827 H        16      M_A    0.0000
    117 H         154.7512  120.4652   41.0643 H        16      M_A    0.0000
    118 H         155.7161  118.4795   40.6384 H        16      M_A    0.0000
    119 H         156.9518  118.9598   41.8348 H        16      M_A    0.0000
    120 C         157.9496  117.9253   39.5886 C.3      17      M_A    0.0000
    121 C         159.2975  117.6449   40.2414 C.3      17      M_A    0.0000
    122 O         160.1063  116.9104   39.3237 O.3      17      M_A    0.0000
    123 H         158.0178  117.7788   38.5047 H        17      M_A    0.0000
    124 H         157.2102  117.2146   39.9746 H        17      M_A    0.0000
    125 H         159.1194  117.0470   41.1462 H        17      M_A    0.0000
    126 H         159.8046  118.5759   40.5282 H        17      M_A    0.0000
    127 C         161.0319  116.0979   40.0135 C.3      18      M_A    0.0000
    128 C         162.4760  116.3963   39.6301 C.3      18      M_A    0.0000
    129 O         163.1918  115.1646   39.5493 O.3      18      M_A    0.0000
    130 H         160.7984  115.0459   39.8141 H        18      M_A    0.0000
    131 H         160.9043  116.2691   41.0884 H        18      M_A    0.0000
    132 H         162.9114  117.0325   40.4134 H        18      M_A    0.0000
    133 H         162.5336  116.9285   38.6712 H        18      M_A    0.0000
    134 C         164.5825  115.3883   39.6411 C.3      19      M_A    0.0000
    135 C         165.3502  114.8104   38.4586 C.3      19      M_A    0.0000
    136 O         166.1519  113.7242   38.9205 O.3      19      M_A    0.0000
    137 H         164.9507  114.9548   40.5779 H        19      M_A    0.0000
    138 H         164.7538  116.4698   39.6849 H        19      M_A    0.0000
    139 H         165.9923  115.6032   38.0498 H        19      M_A    0.0000
    140 H         164.6690  114.4661   37.6690 H        19      M_A    0.0000
    141 C         166.6373  112.9647   37.8341 C.3      20      M_A    0.0000
    142 C         167.4326  111.7436   38.2792 C.3      20      M_A    0.0000
    143 O         168.2041  111.2727   37.1752 O.3      20      M_A    0.0000
    144 H         167.2579  113.6083   37.2002 H        20      M_A    0.0000
    145 H         165.7804  112.6352   37.2358 H        20      M_A    0.0000
    146 H         166.7190  110.9698   38.5954 H        20      M_A    0.0000
    147 H         168.0918  111.9819   39.1246 H        20      M_A    0.0000
    148 C         168.8977  110.0921   37.5182 C.3      21      M_A    0.0000
    149 C         169.2255  109.2295   36.3058 C.3      21      M_A    0.0000
    150 O         169.3716  107.8761   36.7332 O.3      21      M_A    0.0000
    151 H         168.2955  109.5221   38.2348 H        21      M_A    0.0000
    152 H         169.8306  110.3754   38.0186 H        21      M_A    0.0000
    153 H         170.1703  109.5913   35.8763 H        21      M_A    0.0000
    154 H         168.4407  109.2999   35.5407 H        21      M_A    0.0000
    155 C         169.4298  107.0055   35.6235 C.3      22      M_A    0.0000
    156 C         170.3283  105.7997   35.8688 C.3      22      M_A    0.0000
    157 O         171.3350  105.7661   34.8583 O.3      22      M_A    0.0000
    158 H         169.7818  107.5666   34.7503 H        22      M_A    0.0000
    159 H         168.4137  106.6568   35.4074 H        22      M_A    0.0000
    160 H         169.7070  104.8950   35.8096 H        22      M_A    0.0000
    161 H         170.7939  105.8432   36.8625 H        22      M_A    0.0000
    162 C         172.5551  105.2898   35.3847 C.3      23      M_A    0.0000
    163 C         173.7640  106.0365   34.8346 C.3      23      M_A    0.0000
    164 O         174.7638  105.0851   34.4728 O.3      23      M_A    0.0000
    165 H         172.6420  104.2193   35.1667 H        23      M_A    0.0000
    166 H         172.5276  105.4064   36.4740 H        23      M_A    0.0000
    167 H         174.1443  106.6977   35.6259 H        23      M_A    0.0000
    168 H         173.4940  106.6484   33.9635 H        23      M_A    0.0000
    169 C         175.8387  105.7173   33.8114 C.3      24      M_A    0.0000
    170 C         175.4457  106.2710   32.4474 C.3      24      M_A    0.0000
    171 O         176.6009  106.8431   31.8357 O.3      24      M_A    0.0000
    172 H         176.6608  105.0004   33.7047 H        24      M_A    0.0000
    173 H         176.1941  106.5395   34.4427 H        24      M_A    0.0000
    174 H         174.6810  107.0452   32.6021 H        24      M_A    0.0000
    175 H         175.0278  105.4866   31.8023 H        24      M_A    0.0000
    176 C         177.1698  107.8306   32.6687 C.3      25      M_A    0.0000
    177 C         177.8796  108.9255   31.8821 C.3      25      M_A    0.0000
    178 O         179.2880  108.7674   32.0466 O.3      25      M_A    0.0000
    179 H         177.8697  107.3501   33.3618 H        25      M_A    0.0000
    180 H         176.3676  108.2805   33.2645 H        25      M_A    0.0000
    181 H         177.5612  109.8963   32.2873 H        25      M_A    0.0000
    182 H         177.6185  108.8858   30.8161 H        25      M_A    0.0000
    183 C         179.6792  109.1116   33.3586 C.3      26      M_A    0.0000
    184 C         179.5406  110.6022   33.6415 C.3      26      M_A    0.0000
    185 O         180.8016  111.2302   33.4151 O.3      26      M_A    0.0000
    186 H         180.7162  108.7930   33.5148 H        26      M_A    0.0000
    187 H         179.0502  108.5537   34.0615 H        26      M_A    0.0000
    188 H         179.2449  110.7228   34.6932 H        26      M_A    0.0000
    189 H         178.7722  111.0606   33.0046 H        26      M_A    0.0000
    190 C         181.8605  110.3438   33.7077 C.3      27      M_A    0.0000
    191 C         182.8470  110.2055   32.5548 C.3      27      M_A    0.0000
    192 O         182.6714  108.9234   31.9537 O.3      27      M_A    0.0000
    193 H         181.4424  109.3642   33.9658 H        27      M_A    0.0000
    194 H         182.3908  110.7219   34.5891 H        27      M_A    0.0000
    195 H         183.8632  110.2917   32.9644 H        27      M_A    0.0000
    196 H         182.7006  110.9954   31.8059 H        27      M_A    0.0000
    197 C         183.2342  108.8974   30.6594 C.3      28      M_A    0.0000
    198 C         184.4240  107.9515   30.5545 C.3      28      M_A    0.0000
    199 O         185.2222  108.3423   29.4382 O.3      28      M_A    0.0000
    200 H         183.5353  109.9142   30.3828 H        28      M_A    0.0000
    201 H         182.4587  108.5767   29.9546 H        28      M_A    0.0000
    202 H         184.0373  106.9342   30.4014 H        28      M_A    0.0000
    203 H         185.0278  107.9648   31.4718 H        28      M_A    0.0000
    204 C         184.9394  109.6736   29.0637 C.3      29      M_A    0.0000
    205 C         185.2009  109.9368   27.5860 C.3      29      M_A    0.0000
    206 O         186.5069  110.4936   27.4445 O.3      29      M_A    0.0000
    207 H         185.5415  110.3511   29.6797 H        29      M_A    0.0000
    208 H         183.8844  109.8745   29.2819 H        29      M_A    0.0000
    209 H         184.4472  110.6529   27.2295 H        29      M_A    0.0000
    210 H         185.1188  109.0149   26.9947 H        29      M_A    0.0000
    211 C         187.4100  109.5288   26.9483 C.3      30      M_A    0.0000
    212 C         188.8202  109.7064   27.4973 C.3      30      M_A    0.0000
    213 O         189.6977  108.8249   26.7982 O.3      30      M_A    0.0000
    214 H         187.4218  109.5834   25.8538 H        30      M_A    0.0000
    215 H         187.0394  108.5362   27.2280 H        30      M_A    0.0000
    216 H         188.8040  109.4499   28.5659 H        30      M_A    0.0000
    217 H         189.1641  110.7437   27.3889 H        30      M_A    0.0000
    218 C         190.7521  108.4017   27.6360 C.3      31      M_A    0.0000
    219 C         192.0365  108.1184   26.8670 C.3      31      M_A    0.0000
    220 O         192.3389  106.7284   26.9777 O.3      31      M_A    0.0000
    221 H         190.4341  107.5063   28.1820 H        31      M_A    0.0000
    222 H         190.9425  109.1904   28.3727 H        31      M_A    0.0000
    223 H         192.8419  108.7145   27.3186 H        31      M_A    0.0000
    224 H         191.9402  108.3995   25.8098 H        31      M_A    0.0000
    225 C         193.7327  106.5140   26.9150 C.3      32      M_A    0.0000
    226 C         194.2162  106.1991   25.5049 C.3      32      M_A    0.0000
    227 O         195.3456  105.3314   25.5915 O.3      32      M_A    0.0000
    228 H         193.9971  105.6967   27.5956 H        32      M_A    0.0000
    229 H         194.2355  107.4199   27.2719 H        32      M_A    0.0000
    230 H         194.5057  107.1447   25.0254 H        32      M_A    0.0000
    231 H         193.4249  105.7281   24.9064 H        32      M_A    0.0000
    232 C         195.6103  104.7300   24.3421 C.3      33      M_A    0.0000
    233 C         197.0999  104.5381   24.0859 C.3      33      M_A    0.0000
    234 O         197.4798  105.3433   22.9709 O.3      33      M_A    0.0000
    235 H         195.1678  105.3459   23.5509 H        33      M_A    0.0000
    236 H         195.1144  103.7530   24.3198 H        33      M_A    0.0000
    237 H         197.2719  103.4768   23.8581 H        33      M_A    0.0000
    238 H         197.6959  104.8106   24.9672 H        33      M_A    0.0000
    239 C         198.8850  105.4464   22.8852 C.3      34      M_A    0.0000
    240 C         199.3553  106.8729   22.6292 C.3      34      M_A    0.0000
    241 O         199.9754  106.9268   21.3453 O.3      34      M_A    0.0000
    242 H         199.2417  104.7832   22.0890 H        34      M_A    0.0000
    243 H         199.3132  105.0925   23.8298 H        34      M_A    0.0000
    244 H         200.0838  107.1360   23.4090 H        34      M_A    0.0000
    245 H         198.5194  107.5838   22.6734 H        34      M_A    0.0000
    246 C         200.7185  108.1180   21.1993 C.3      35      M_A    0.0000
    247 C         199.9350  109.3550   21.6205 C.3      35      M_A    0.0000
    248 O         200.7797  110.4977   21.4912 O.3      35      M_A    0.0000
    249 H         201.0379  108.2114   20.1551 H        35      M_A    0.0000
    250 H         201.6201  108.0378   21.8171 H        35      M_A    0.0000
    251 H         199.6355  109.2268   22.6702 H        35      M_A    0.0000
    252 H         199.0316  109.4838   21.0094 H        35      M_A    0.0000
    253 C         201.2146  110.9431   22.7582 C.3      36      M_A    0.0000
    254 C         202.3320  111.9748   22.6669 C.3      36      M_A    0.0000
    255 O         203.5108  111.4257   23.2540 O.3      36      M_A    0.0000
    256 H         201.5468  110.0782   23.3436 H        36      M_A    0.0000
    257 H         200.3584  111.3877   23.2780 H        36      M_A    0.0000
    258 H         202.0166  112.8680   23.2242 H        36      M_A    0.0000
    259 H         202.5287  112.2605   21.6249 H        36      M_A    0.0000
    260 C         204.6470  112.1818   22.8934 C.3      37      M_A    0.0000
    261 C         205.0093  112.0327   21.4210 C.3      37      M_A    0.0000
    262 O         206.4180  111.8331   21.3143 O.3      37      M_A    0.0000
    263 H         205.4910  111.8761   23.5221 H        37      M_A    0.0000
    264 H         204.4387  113.2365   23.1057 H        37      M_A    0.0000
    265 H         204.7215  112.9592   20.9044 H        37      M_A    0.0000
    266 H         204.4742  111.1915   20.9604 H        37      M_A    0.0000
    267 C         207.0607  112.1488   22.5308 C.3      38      M_A    0.0000
    268 C         208.5579  112.3762   22.3631 C.3      38      M_A    0.0000
    269 O         209.2284  111.8812   23.5213 O.3      38      M_A    0.0000
    270 H         206.8801  111.3400   23.2480 H        38      M_A    0.0000
    271 H         206.6033  113.0594   22.9342 H        38      M_A    0.0000
    272 H         208.7287  113.4573   22.2642 H        38      M_A    0.0000
    273 H         208.9404  111.8750   21.4639 H        38      M_A    0.0000
    274 C         210.5668  111.5491   23.2197 C.3      39      M_A    0.0000
    275 C         211.5690  112.4820   23.8881 C.3      39      M_A    0.0000
    276 O         212.6372  112.7349   22.9767 O.3      39      M_A    0.0000
    277 H         210.7009  111.5686   22.1321 H        39      M_A    0.0000
    278 H         210.7507  110.5236   23.5593 H        39      M_A    0.0000
    279 H         211.9538  111.9801   24.7870 H        39      M_A    0.0000
    280 H         211.0975  113.4278   24.1870 H        39      M_A    0.0000
    281 C         213.7280  113.3369   23.6404 C.3      40      M_A    0.0000
    282 C         215.0730  112.7988   23.1684 C.3      40      M_A    0.0000
    283 O         216.0109  112.9094   24.2379 O.3      40      M_A    0.0000
    284 H         213.6170  113.1806   24.7194 H        40      M_A    0.0000
    285 H         213.6892  114.4162   23.4547 H        40      M_A    0.0000
    286 H         215.4030  113.4085   22.3155 H        40      M_A    0.0000
    287 H         214.9939  111.7525   22.8441 H        40      M_A    0.0000
    288 C         215.7766  111.9154   25.2124 C.3      41      M_A    0.0000
    289 C         216.7845  111.9622   26.3540 C.3      41      M_A    0.0000
    290 O         217.8430  111.0493   26.0676 O.3      41      M_A    0.0000
    291 H         215.7997  110.9321   24.7291 H        41      M_A    0.0000
    292 H         214.7693  112.0633   25.6180 H        41      M_A    0.0000
    293 H         216.2683  111.6604   27.2762 H        41      M_A    0.0000
    294 H         217.1875  112.9746   26.4908 H        41      M_A    0.0000
    295 C         218.5385  110.7051   27.2467 C.3      42      M_A    0.0000
    296 C         219.7313  111.6151   27.5125 C.3      42      M_A    0.0000
    297 O         220.9303  110.8780   27.2779 O.3      42      M_A    0.0000
    298 H         218.8685  109.6627   27.1728 H        42      M_A    0.0000
    299 H         217.8408  110.7743   28.0890 H        42      M_A    0.0000
    300 H         219.6874  111.9353   28.5630 H        42      M_A    0.0000
    301 H         219.7057  112.5060   26.8710 H        42      M_A    0.0000
    302 C         222.0080  111.4345   28.0000 C.3      43      M_A    0.0000
    303 C         222.0857  112.9502   27.8652 C.3      43      M_A    0.0000
    304 O         223.4055  113.3062   27.4564 O.3      43      M_A    0.0000
    305 H         222.9415  110.9768   27.6534 H        43      M_A    0.0000
    306 H         221.8828  111.1752   29.0574 H        43      M_A    0.0000
    307 H         221.8657  113.3908   28.8477 H        43      M_A    0.0000
    308 H         221.3526  113.3254   27.1385 H        43      M_A    0.0000
    309 C         223.3993  114.5368   26.7650 C.3      44      M_A    0.0000
    310 C         224.2491  115.6001   27.4496 C.3      44      M_A    0.0000
    311 O         223.9283  116.8727   26.8897 O.3      44      M_A    0.0000
    312 H         222.3645  114.8850   26.6694 H        44      M_A    0.0000
    313 H         223.7870  114.3646   25.7546 H        44      M_A    0.0000
    314 H         225.3059  115.3635   27.2621 H        44      M_A    0.0000
    315 H         224.0776  115.6122   28.5343 H        44      M_A    0.0000
    316 C         224.6893  117.8929   27.5000 C.3      45      M_A    0.0000
    317 C         224.3761  118.0532   28.9825 C.3      45      M_A    0.0000
    318 O         225.3992  118.8457   29.5833 O.3      45      M_A    0.0000
    319 H         224.5070  118.8358   26.9720 H        45      M_A    0.0000
    320 H         225.7506  117.6459   27.3831 H        45      M_A    0.0000
    321 H         224.3611  117.0526   29.4371 H        45      M_A    0.0000
    322 H         223.3961  118.5247   29.1357 H        45      M_A    0.0000
    323 C         226.4666  118.0334   30.0231 C.3      46      M_A    0.0000
    324 C         227.5904  118.8366   30.6661 C.3      46      M_A    0.0000
    325 O         228.8004  118.0862   30.5729 O.3      46      M_A    0.0000
    326 H         226.8516  117.4613   29.1712 H        46      M_A    0.0000
    327 H         226.0743  117.3178   30.7544 H        46      M_A    0.0000
    328 H         227.3307  119.0002   31.7215 H        46      M_A    0.0000
    329 H         227.7144  119.8127   30.1782 H        46      M_A    0.0000
    330 C         229.9122  118.8878   30.9103 C.3      47      M_A    0.0000
    331 C         230.8928  118.1746   31.8329 C.3      47      M_A    0.0000
    332 O         231.9514  119.0741   32.1588 O.3      47      M_A    0.0000
    333 H         229.5547  119.8107   31.3810 H        47      M_A    0.0000
    334 H         230.4288  119.1649   29.9844 H        47      M_A    0.0000
    335 H         231.2930  117.3032   31.2958 H        47      M_A    0.0000
    336 H         230.3988  117.8270   32.7501 H        47      M_A    0.0000
    337 C         231.5190  120.0346   33.0985 C.3      48      M_A    0.0000
    338 C         231.2738  121.4015   32.4717 C.3      48      M_A    0.0000
    339 O         232.4718  122.1705   32.5681 O.3      48      M_A    0.0000
    340 H         232.2675  120.1138   33.8951 H        48      M_A    0.0000
    341 H         230.5877  119.6763   33.5515 H        48      M_A    0.0000
    342 H         230.4665  121.8930   33.0326 H        48      M_A    0.0000
    343 H         230.9684  121.3108   31.4207 H        48      M_A    0.0000
    344 C         232.3760  123.3438   31.7890 C.3      49      M_A    0.0000
    345 C         233.6900  123.7065   31.1084 C.3      49      M_A    0.0000
    346 O         234.0646  125.0236   31.5090 O.3      49      M_A    0.0000
    347 H         232.0427  124.1686   32.4291 H        49      M_A    0.0000
    348 H         231.6081  123.1855   31.0234 H        49      M_A    0.0000
    349 H         233.5297  123.6764   30.0214 H        49      M_A    0.0000
    350 H         234.4848  122.9941   31.3673 H        49      M_A    0.0000
    351 C         235.4570  125.1021   31.7276 C.3      50      M_A    0.0000
    352 C         235.8167  125.1764   33.2063 C.3      50      M_A    0.0000
    353 O         237.2321  125.3108   33.3267 O.3      50      M_A    0.0000
    354 H         235.8504  125.9781   31.1994 H        50      M_A    0.0000
    355 H         235.9236  124.2123   31.2900 H        50      M_A    0.0000
    356 H         235.4865  124.2433   33.6840 H        50      M_A    0.0000
    357 H         235.3154  126.0208   33.6981 H        50      M_A    0.0000
    358 C         237.8616  125.0973   32.0815 C.3      51      M_A    0.0000
    359 C         239.3013  124.6195   32.2249 C.3      51      M_A    0.0000
    360 O         240.1758  125.7132   31.9512 O.3      51      M_A    0.0000
    361 H         237.8289  126.0275   31.5030 H        51      M_A    0.0000
    362 H         237.2873  124.3431   31.5316 H        51      M_A    0.0000
    363 H         239.4670  123.8149   31.4946 H        51      M_A    0.0000
    364 H         239.4941  124.2266   33.2321 H        51      M_A    0.0000
    365 C         241.4945  125.2570   31.7380 C.3      52      M_A    0.0000
    366 C         242.4846  125.8294   32.7447 C.3      52      M_A    0.0000
    367 O         243.0827  126.9975   32.1848 O.3      52      M_A    0.0000
    368 H         241.7999  125.5182   30.7184 H        52      M_A    0.0000
    369 H         241.4961  124.1639   31.8161 H        52      M_A    0.0000
    370 H         243.2544  125.0683   32.9351 H        52      M_A    0.0000
    371 H         241.9915  126.0773   33.6942 H        52      M_A    0.0000
    372 C         243.7396  127.7494   33.1827 C.3      53      M_A    0.0000
    373 C         242.7702  128.4076   34.1566 C.3      53      M_A    0.0000
    374 O         243.4884  129.3520   34.9491 O.3      53      M_A    0.0000
    375 H         244.3642  128.5099   32.7005 H        53      M_A    0.0000
    376 H         244.4033  127.0768   33.7378 H        53      M_A    0.0000
    377 H         242.3483  127.6223   34.7994 H        53      M_A    0.0000
    378 H         241.9489  128.9084   33.6266 H        53      M_A    0.0000
    379 C         244.6269  129.8203   34.2583 C.3      54      M_A    0.0000
    380 C         245.6153  130.5355   35.1709 C.3      54      M_A    0.0000
    381 O         245.4402  131.9436   35.0210 O.3      54      M_A    0.0000
    382 H         244.3032  130.4907   33.4540 H        54      M_A    0.0000
    383 H         245.1246  128.9609   33.7950 H        54      M_A    0.0000
    384 H         246.6309  130.2490   34.8634 H        54      M_A    0.0000
    385 H         245.4707  130.2480   36.2209 H        54      M_A    0.0000
    386 C         246.1535  132.6444   36.0174 C.3      55      M_A    0.0000
    387 C         245.4855  133.9579   36.4046 C.3      55      M_A    0.0000
    388 O         246.2131  135.0331   35.8127 O.3      55      M_A    0.0000
    389 H         247.1725  132.8306   35.6598 H        55      M_A    0.0000
    390 H         246.2238  132.0036   36.9037 H        55      M_A    0.0000
    391 H         245.5138  134.0439   37.4999 H        55      M_A    0.0000
    392 H         244.4380  133.9863   36.0757 H        55      M_A    0.0000
    393 C         245.3802  136.1578   35.6282 C.3      56      M_A    0.0000
    394 C         246.0426  137.2499   34.7976 C.3      56      M_A    0.0000
    395 O         245.6573  138.5201   35.3211 O.3      56      M_A    0.0000
    396 H         245.0936  136.5521   36.6098 H        56      M_A    0.0000
    397 H         244.4657  135.8281   35.1222 H        56      M_A    0.0000
    398 H         245.6913  137.1492   33.7611 H        56      M_A    0.0000
    399 H         247.1365  137.1540   34.8099 H        56      M_A    0.0000
    400 C         245.5304  139.4698   34.2844 C.3      57      M_A    0.0000
    401 C         246.3665  140.7201   34.5270 C.3      57      M_A    0.0000
    402 O         245.4897  141.8081   34.8158 O.3      57      M_A    0.0000
    403 H         244.4733  139.7381   34.1764 H        57      M_A    0.0000
    404 H         245.8519  139.0003   33.3479 H        57      M_A    0.0000
    405 H         246.9369  140.9309   33.6115 H        57      M_A    0.0000
    406 H         247.0719  140.5751   35.3562 H        57      M_A    0.0000
    407 C         246.2127  143.0149   34.9316 C.3      58      M_A    0.0000
    408 C         245.5083  144.0400   35.8117 C.3      58      M_A    0.0000
    409 O         246.0003  145.3388   35.4849 O.3      58      M_A    0.0000
    410 H         246.3773  143.4276   33.9298 H        58      M_A    0.0000
    411 H         247.1939  142.7869   35.3629 H        58      M_A    0.0000
    412 H         245.7392  143.8041   36.8600 H        58      M_A    0.0000
    413 H         244.4193  144.0046   35.6741 H        58      M_A    0.0000
    414 C         245.6429  146.2733   36.4807 C.3      59      M_A    0.0000
    415 C         245.7710  147.7156   36.0065 C.3      59      M_A    0.0000
    416 O         246.0338  148.5469   37.1359 O.3      59      M_A    0.0000
    417 H         246.2714  146.1093   37.3634 H        59      M_A    0.0000
    418 H         244.6037  146.0833   36.7722 H        59      M_A    0.0000
    419 H         244.8192  148.0062   35.5402 H        59      M_A    0.0000
    420 H         246.5741  147.8232   35.2651 H        59      M_A    0.0000
    421 C         246.8339  149.6503   36.7684 C.3      60      M_A    0.0000
    422 C         247.0459  150.6307   37.9153 C.3      60      M_A    0.0000
    423 O         247.4745  151.8802   37.3759 O.3      60      M_A    0.0000
    424 H         246.3665  150.1600   35.9182 H        60      M_A    0.0000
    425 H         247.8073  149.2726   36.4358 H        60      M_A    0.0000
    426 H         247.8237  150.2201   38.5744 H        60      M_A    0.0000
    427 H         246.1259  150.7686   38.4991 H        60      M_A    0.0000
    428 C         247.1978  152.9332   38.2744 C.3      61      M_A    0.0000
    429 C         248.3406  153.9358   38.3749 C.3      61      M_A    0.0000
    430 O         248.5369  154.2697   39.7481 O.3      61      M_A    0.0000
    431 H         246.9799  152.5096   39.2614 H        61      M_A    0.0000
    432 H         246.2963  153.4514   37.9283 H        61      M_A    0.0000
    433 H         248.0567  154.8333   37.8076 H        61      M_A    0.0000
    434 H         249.2682  153.5291   37.9502 H        61      M_A    0.0000
    435 C         249.8478  154.7470   39.9635 C.3      62      M_A    0.0000
    436 C         250.0270  155.3715   41.3417 C.3      62      M_A    0.0000
    437 O         250.6516  156.6452   41.1892 O.3      62      M_A    0.0000
    438 H         250.0922  155.4774   39.1839 H        62      M_A    0.0000
    439 H         250.5410  153.9047   39.8593 H        62      M_A    0.0000
    440 H         250.6705  154.7069   41.9352 H        62      M_A    0.0000
    441 H         249.0644  155.4838   41.8583 H        62      M_A    0.0000
    442 C         250.3450  157.4857   42.2811 C.3      63      M_A    0.0000
    443 C         250.1019  158.9300   41.8612 C.3      63      M_A    0.0000
    444 O         250.8998  159.7847   42.6790 O.3      63      M_A    0.0000
    445 H         251.1642  157.4369   43.0075 H        63      M_A    0.0000
    446 H         249.4437  157.0984   42.7696 H        63      M_A    0.0000
    447 H         249.0365  159.1535   42.0126 H        63      M_A    0.0000
    448 H         250.3477  159.0856   40.8022 H        63      M_A    0.0000
    449 C         250.8196  161.1211   42.2317 C.3      64      M_A    0.0000
    450 C         251.3591  162.1159   43.2519 C.3      64      M_A    0.0000
    451 O         250.5185  163.2689   43.2555 O.3      64      M_A    0.0000
    452 H         249.7754  161.3538   41.9939 H        64      M_A    0.0000
    453 H         251.3991  161.2083   41.3057 H        64      M_A    0.0000
    454 H         252.3778  162.3954   42.9487 H        64      M_A    0.0000
    455 H         251.3987  161.6760   44.2574 H        64      M_A    0.0000
    456 C         250.8265  164.1080   44.3481 C.3      65      M_A    0.0000
    457 C         251.3394  165.4751   43.9131 C.3      65      M_A    0.0000
    458 O         252.1992  165.9862   44.9306 O.3      65      M_A    0.0000
    459 H         251.5706  163.6095   44.9797 H        65      M_A    0.0000
    460 H         249.9176  164.2402   44.9458 H        65      M_A    0.0000
    461 H         250.4728  166.1389   43.7859 H        65      M_A    0.0000
    462 H         251.8801  165.4146   42.9591 H        65      M_A    0.0000
    463 C         252.2045  165.1328   46.0551 C.3      66      M_A    0.0000
    464 C         252.8838  165.7601   47.2660 C.3      66      M_A    0.0000
    465 O         254.1174  165.0826   47.5007 O.3      66      M_A    0.0000
    466 H         252.7036  164.1949   45.7864 H        66      M_A    0.0000
    467 H         251.1655  164.8956   46.3104 H        66      M_A    0.0000
    468 H         252.2177  165.6370   48.1315 H        66      M_A    0.0000
    469 H         253.0667  166.8320   47.1116 H        66      M_A    0.0000
    470 C         254.5079  165.2097   48.8512 C.3      67      M_A    0.0000
    471 C         254.3884  166.6389   49.3656 C.3      67      M_A    0.0000
    472 O         255.6875  167.2287   49.3839 O.3      67      M_A    0.0000
    473 H         255.5397  164.8558   48.9571 H        67      M_A    0.0000
    474 H         253.8684  164.5569   49.4561 H        67      M_A    0.0000
    475 H         253.9796  166.6003   50.3851 H        67      M_A    0.0000
    476 H         253.7133  167.2352   48.7374 H        67      M_A    0.0000
    477 C         255.7800  168.2014   50.4027 C.3      68      M_A    0.0000
    478 C         254.5133  169.0379   50.5336 C.3      68      M_A    0.0000
    479 O         254.8492  170.4107   50.3376 O.3      68      M_A    0.0000
    480 H         256.6401  168.8491   50.1980 H        68      M_A    0.0000
    481 H         255.9691  167.6872   51.3518 H        68      M_A    0.0000
    482 H         254.1118  168.8909   51.5461 H        68      M_A    0.0000
    483 H         253.7526  168.7289   49.8044 H        68      M_A    0.0000
    484 C         254.4227  171.1907   51.4340 C.3      69      M_A    0.0000
    485 C         253.8241  172.5256   51.0084 C.3      69      M_A    0.0000
    486 O         253.8813  173.4259   52.1138 O.3      69      M_A    0.0000
    487 H         255.2737  171.3557   52.1046 H        69      M_A    0.0000
    488 H         253.6683  170.6205   51.9878 H        69      M_A    0.0000
    489 H         252.7780  172.3526   50.7193 H        69      M_A    0.0000
    490 H         254.3616  172.9495   50.1496 H        69      M_A    0.0000
    491 C         252.8049  174.3381   52.0711 C.3      70      M_A    0.0000
    492 C         253.0498  175.5768   52.9239 C.3      70      M_A    0.0000
    493 O         251.8027  176.0181   53.4586 O.3      70      M_A    0.0000
    494 H         251.8933  173.8271   52.4014 H        70      M_A    0.0000
    495 H         252.6559  174.6443   51.0295 H        70      M_A    0.0000
    496 H         253.4773  176.3558   52.2772 H        70      M_A    0.0000
    497 H         253.7559  175.3683   53.7388 H        70      M_A    0.0000
    498 C         250.9923  176.5719   52.4441 C.3      71      M_A    0.0000
    499 C         250.3400  177.8835   52.8632 C.3      71      M_A    0.0000
    500 O         249.1155  177.5914   53.5348 O.3      71      M_A    0.0000
    501 H         250.2246  175.8413   52.1647 H        71      M_A    0.0000
    502 H         251.6192  176.7493   51.5629 H        71      M_A    0.0000
    503 H         250.1393  178.4689   51.9549 H        71      M_A    0.0000
    504 H         250.9995  178.4665   53.5198 H        71      M_A    0.0000
    505 C         249.1218  178.1279   54.8405 C.3      72      M_A    0.0000
    506 C         248.1345  179.2760   55.0091 C.3      72      M_A    0.0000
    507 O         248.2060  179.7472   56.3540 O.3      72      M_A    0.0000
    508 H         250.1366  178.4648   55.0809 H        72      M_A    0.0000
    509 H         248.8624  177.3268   55.5418 H        72      M_A    0.0000
    510 H         247.1265  178.8914   54.7995 H        72      M_A    0.0000
    511 H         248.3512  180.0959   54.3112 H        72      M_A    0.0000
    512 C         247.4469  180.9269   56.5109 C.3      73      M_A    0.0000
    513 C         247.2319  181.2976   57.9730 C.3      73      M_A    0.0000
    514 O         245.9915  181.9928   58.0911 O.3      73      M_A    0.0000
    515 H         246.4814  180.7971   56.0088 H        73      M_A    0.0000
    516 H         247.9759  181.7446   56.0083 H        73      M_A    0.0000
    517 H         248.0592  181.9511   58.2834 H        73      M_A    0.0000
    518 H         247.2265  180.4067   58.6150 H        73      M_A    0.0000
    519 C         245.8041  182.4591   59.4102 C.3      74      M_A    0.0000
    520 C         245.7835  181.3318   60.4349 C.3      74      M_A    0.0000
    521 O         244.6021  181.4538   61.2257 O.3      74      M_A    0.0000
    522 H         244.8682  183.0276   59.4561 H        74      M_A    0.0000
    523 H         246.6230  183.1465   59.6507 H        74      M_A    0.0000
    524 H         246.6733  181.4346   61.0717 H        74      M_A    0.0000
    525 H         245.8103  180.3478   59.9479 H        74      M_A    0.0000
    526 C         243.7008  182.3683   60.6392 C.3      75      M_A    0.0000
    527 C         242.6898  182.9193   61.6371 C.3      75      M_A    0.0000
    528 O         241.3785  182.5567   61.2074 O.3      75      M_A    0.0000
    529 H         243.1816  181.8732   59.8108 H        75      M_A    0.0000
    530 H         244.2795  183.1992   60.2201 H        75      M_A    0.0000
    531 H         242.7899  184.0137   61.6535 H        75      M_A    0.0000
    532 H         242.8746  182.5332   62.6485 H        75      M_A    0.0000
    533 C         240.4025  183.0936   62.0745 C.3      76      M_A    0.0000
    534 C         240.5232  182.5612   63.4970 C.3      76      M_A    0.0000
    535 O         239.6996  183.3519   64.3528 O.3      76      M_A    0.0000
    536 H         239.4082  182.8702   61.6714 H        76      M_A    0.0000
    537 H         240.5187  184.1832   62.0890 H        76      M_A    0.0000
    538 H         241.5750  182.6473   63.8043 H        76      M_A    0.0000
    539 H         240.2239  181.5063   63.5562 H        76      M_A    0.0000
    540 C         239.3091  184.5450   63.7074 C.3      77      M_A    0.0000
    541 C         239.5484  185.7822   64.5639 C.3      77      M_A    0.0000
    542 O         238.5282  186.7387   64.2811 O.3      77      M_A    0.0000
    543 H         238.2494  184.4722   63.4377 H        77      M_A    0.0000
    544 H         239.8833  184.6362   62.7784 H        77      M_A    0.0000
    545 H         240.5325  186.1939   64.2993 H        77      M_A    0.0000
    546 H         239.5459  185.5347   65.6339 H        77      M_A    0.0000
    547 C         238.1346  187.4117   65.4579 C.3      78      M_A    0.0000
    548 C         236.7674  188.0716   65.3283 C.3      78      M_A    0.0000
    549 O         236.6576  189.0946   66.3168 O.3      78      M_A    0.0000
    550 H         238.8932  188.1619   65.7084 H        78      M_A    0.0000
    551 H         238.1043  186.6830   66.2758 H        78      M_A    0.0000
    552 H         236.0009  187.3024   65.4980 H        78      M_A    0.0000
    553 H         236.6225  188.4988   64.3270 H        78      M_A    0.0000
    554 C         235.3102  189.4767   66.4926 C.3      79      M_A    0.0000
    555 C         235.0935  190.9726   66.3013 C.3      79      M_A    0.0000
    556 O         234.8336  191.5638   67.5736 O.3      79      M_A    0.0000
    557 H         234.9829  189.1732   67.4935 H        79      M_A    0.0000
    558 H         234.7009  188.9306   65.7635 H        79      M_A    0.0000
    559 H         234.2262  191.1089   65.6402 H        79      M_A    0.0000
    560 H         235.9684  191.4476   65.8374 H        79      M_A    0.0000
    561 C         233.9937  192.6903   67.4387 C.3      80      M_A    0.0000
    562 C         234.6220  193.9620   67.9948 C.3      80      M_A    0.0000
    563 O         233.8867  194.3692   69.1478 O.3      80      M_A    0.0000
    564 H         233.0430  192.4869   67.9447 H        80      M_A    0.0000
    565 H         233.7797  192.8329   66.3734 H        80      M_A    0.0000
    566 H         234.5629  194.7381   67.2188 H        80      M_A    0.0000
    567 H         235.6768  193.8055   68.2572 H        80      M_A    0.0000
    568 C         234.5695  195.3928   69.8397 C.3      81      M_A    0.0000
    569 C         233.7500  195.9771   70.9835 C.3      81      M_A    0.0000
    570 O         233.9097  197.3950   70.9831 O.3      81      M_A    0.0000
    571 H         234.8410  196.1816   69.1289 H        81      M_A    0.0000
    572 H         235.4985  194.9738   70.2425 H        81      M_A    0.0000
    573 H         234.1316  195.5569   71.9247 H        81      M_A    0.0000
    574 H         232.6871  195.7182   70.8872 H        81      M_A    0.0000
    575 C         233.2810  197.9686   72.1093 C.3      82      M_A    0.0000
    576 C         231.8336  197.5195   72.2670 C.3      82      M_A    0.0000
    577 O         231.1886  198.3762   73.2081 O.3      82      M_A    0.0000
    578 H         233.3300  199.0602   72.0256 H        82      M_A    0.0000
    579 H         233.8453  197.6777   73.0025 H        82      M_A    0.0000
    580 H         231.8370  196.4861   72.6413 H        82      M_A    0.0000
    581 H         231.2999  197.5450   71.3075 H        82      M_A    0.0000
    582 C         230.0459  197.7505   73.7516 C.3      83      M_A    0.0000
    583 C         228.7776  198.5723   73.5580 C.3      83      M_A    0.0000
    584 O         228.1978  198.8271   74.8365 O.3      83      M_A    0.0000
    585 H         230.2161  197.5655   74.8183 H        83      M_A    0.0000
    586 H         229.9210  196.7786   73.2611 H        83      M_A    0.0000
    587 H         228.0827  197.9852   72.9412 H        83      M_A    0.0000
    588 H         228.9893  199.5202   73.0452 H        83      M_A    0.0000
    589 C         226.8046  199.0237   74.7228 C.3      84      M_A    0.0000
    590 C         226.4505  200.3203   74.0053 C.3      84      M_A    0.0000
    591 O         225.2076  200.8009   74.5155 O.3      84      M_A    0.0000
    592 H         226.3618  199.0144   75.7253 H        84      M_A    0.0000
    593 H         226.3834  198.1795   74.1652 H        84      M_A    0.0000
    594 H         226.3557  200.1006   72.9326 H        84      M_A    0.0000
    595 H         227.2321  201.0796   74.1419 H        84      M_A    0.0000
    596 C         224.4128  201.3312   73.4764 C.3      85      M_A    0.0000
    597 C         223.4292  202.3857   73.9683 C.3      85      M_A    0.0000
    598 O         222.1429  201.7834   74.1044 O.3      85      M_A    0.0000
    599 H         223.8739  200.5114   72.9881 H        85      M_A    0.0000
    600 H         225.0783  201.7822   72.7316 H        85      M_A    0.0000
    601 H         223.3897  203.1895   73.2198 H        85      M_A    0.0000
    602 H         223.7479  202.8134   74.9283 H        85      M_A    0.0000
    603 C         221.1221  202.7170   73.8232 C.3      86      M_A    0.0000
    604 C         220.0942  202.8193   74.9432 C.3      86      M_A    0.0000
    605 O         218.8733  202.2294   74.4991 O.3      86      M_A    0.0000
    606 H         220.6309  202.4342   72.8853 H        86      M_A    0.0000
    607 H         221.5865  203.6982   73.6729 H        86      M_A    0.0000
    608 H         219.9374  203.8843   75.1648 H        86      M_A    0.0000
    609 H         220.4447  202.3174   75.8550 H        86      M_A    0.0000
    610 C         217.8058  202.5912   75.3488 C.3      87      M_A    0.0000
    611 C         216.8092  201.4574   75.5562 C.3      87      M_A    0.0000
    612 O         215.5615  202.0144   75.9670 O.3      87      M_A    0.0000
    613 H         217.2985  203.4669   74.9283 H        87      M_A    0.0000
    614 H         218.2234  202.8826   76.3192 H        87      M_A    0.0000
    615 H         217.2028  200.7982   76.3426 H        87      M_A    0.0000
    616 H         216.6749  200.8699   74.6381 H        87      M_A    0.0000
    617 C         214.8536  201.1058   76.7831 C.3      88      M_A    0.0000
    618 C         213.4125  200.9081   76.3298 C.3      88      M_A    0.0000
    619 O         212.5412  201.3226   77.3809 O.3      88      M_A    0.0000
    620 H         214.8774  201.4654   77.8181 H        88      M_A    0.0000
    621 H         215.3736  200.1415   76.7538 H        88      M_A    0.0000
    622 H         213.2654  199.8392   76.1202 H        88      M_A    0.0000
    623 H         213.1984  201.4791   75.4164 H        88      M_A    0.0000
    624 C         211.2535  200.7705   77.2091 C.3      89      M_A    0.0000
    625 C         210.7197  200.9529   75.7938 C.3      89      M_A    0.0000
    626 O         209.3693  200.4942   75.7514 O.3      89      M_A    0.0000
    627 H         210.5705  201.2310   77.9320 H        89      M_A    0.0000
    628 H         211.3062  199.6998   77.4366 H        89      M_A    0.0000
    629 H         211.3415  200.3517   75.1156 H        89      M_A    0.0000
    630 H         210.7701  202.0040   75.4794 H        89      M_A    0.0000
    631 C         209.1168  199.5870   76.8030 C.3      90      M_A    0.0000
    632 C         208.3211  198.3690   76.3505 C.3      90      M_A    0.0000
    633 O         207.3092  198.0977   77.3191 O.3      90      M_A    0.0000
    634 H         208.5817  200.1110   77.6031 H        90      M_A    0.0000
    635 H         210.0794  199.2552   77.2084 H        90      M_A    0.0000
    636 H         209.0124  197.5174   76.2816 H        90      M_A    0.0000
    637 H         207.8645  198.5329   75.3652 H        90      M_A    0.0000
    638 C         206.2523  199.0271   77.2109 C.3      91      M_A    0.0000
    639 C         204.8928  198.3561   77.0588 C.3      91      M_A    0.0000
    640 O         204.3015  198.7923   75.8358 O.3      91      M_A    0.0000
    641 H         206.4451  199.6861   76.3568 H        91      M_A    0.0000
    642 H         206.2465  199.6468   78.1147 H        91      M_A    0.0000
    643 H         204.2659  198.6614   77.9084 H        91      M_A    0.0000
    644 H         204.9840  197.2617   77.0633 H        91      M_A    0.0000
    645 C         202.9065  198.5765   75.8507 C.3      92      M_A    0.0000
    646 C         202.2337  198.9904   74.5479 C.3      92      M_A    0.0000
    647 O         200.8430  199.1921   74.7951 O.3      92      M_A    0.0000
    648 H         202.4710  199.1278   76.6918 H        92      M_A    0.0000
    649 H         202.7264  197.5094   76.0233 H        92      M_A    0.0000
    650 H         202.3714  198.1779   73.8208 H        92      M_A    0.0000
    651 H         202.6803  199.9074   74.1406 H        92      M_A    0.0000
    652 C         200.5751  200.5523   75.0610 C.3      93      M_A    0.0000
    653 C         199.2675  200.7573   75.8157 C.3      93      M_A    0.0000
    654 O         198.2564  201.1388   74.8840 O.3      93      M_A    0.0000
    655 H         200.5535  201.1017   74.1130 H        93      M_A    0.0000
    656 H         201.4006  200.9538   75.6595 H        93      M_A    0.0000
    657 H         199.4215  201.5593   76.5513 H        93      M_A    0.0000
    658 H         198.9648  199.8451   76.3469 H        93      M_A    0.0000
    659 C         196.9724  200.8507   75.3948 C.3      94      M_A    0.0000
    660 C         195.8611  201.5443   74.6168 C.3      94      M_A    0.0000
    661 O         194.7055  201.6317   75.4492 O.3      94      M_A    0.0000
    662 H         196.9355  201.1462   76.4495 H        94      M_A    0.0000
    663 H         196.8197  199.7666   75.3474 H        94      M_A    0.0000
    664 H         195.6380  200.9373   73.7281 H        94      M_A    0.0000
    665 H         196.1667  202.5475   74.2908 H        94      M_A    0.0000
    666 C         193.5299  201.6730   74.6690 C.3      95      M_A    0.0000
    667 C         192.5807  202.7863   75.0944 C.3      95      M_A    0.0000
    668 O         191.3315  202.2056   75.4658 O.3      95      M_A    0.0000
    669 H         193.0259  200.7020   74.7349 H        95      M_A    0.0000
    670 H         193.8177  201.8281   73.6230 H        95      M_A    0.0000
    671 H         192.4411  203.4602   74.2374 H        95      M_A    0.0000
    672 H         192.9916  203.3636   75.9334 H        95      M_A    0.0000
    673 C         190.5330  203.1402   76.1597 C.3      96      M_A    0.0000
    674 C         189.1049  202.6524   76.3692 C.3      96      M_A    0.0000
    675 O         188.2057  203.6413   75.8698 O.3      96      M_A    0.0000
    676 H         190.5310  204.0858   75.6058 H        96      M_A    0.0000
    677 H         190.9941  203.3274   77.1360 H        96      M_A    0.0000
    678 H         188.9478  202.5132   77.4481 H        96      M_A    0.0000
    679 H         188.9306  201.6945   75.8611 H        96      M_A    0.0000
    680 C         186.8887  203.1361   75.8140 C.3      97      M_A    0.0000
    681 C         186.7182  202.0549   74.7541 C.3      97      M_A    0.0000
    682 O         185.4109  201.4966   74.8762 O.3      97      M_A    0.0000
    683 H         186.1984  203.9652   75.6214 H        97      M_A    0.0000
    684 H         186.6401  202.7174   76.7957 H        97      M_A    0.0000
    685 H         187.4758  201.2793   74.9346 H        97      M_A    0.0000
    686 H         186.8617  202.4594   73.7433 H        97      M_A    0.0000
    687 C         185.1333  200.6339   73.7940 C.3      98      M_A    0.0000
    688 C         184.9033  199.1935   74.2343 C.3      98      M_A    0.0000
    689 O         184.4354  198.4421   73.1153 O.3      98      M_A    0.0000
    690 H         185.9632  200.6819   73.0798 H        98      M_A    0.0000
    691 H         184.2346  201.0004   73.2850 H        98      M_A    0.0000
    692 H         184.1428  199.1977   75.0278 H        98      M_A    0.0000
    693 H         185.8238  198.7445   74.6307 H        98      M_A    0.0000
    694 C         183.1717  198.9089   72.6936 C.3      99      M_A    0.0000
    695 C         182.2757  197.7915   72.1739 C.3      99      M_A    0.0000
    696 O         182.1827  197.9023   70.7544 O.3      99      M_A    0.0000
    697 H         183.3151  199.6691   71.9173 H        99      M_A    0.0000
    698 H         182.6825  199.3925   73.5466 H        99      M_A    0.0000
    699 H         181.2814  197.9149   72.6257 H        99      M_A    0.0000
    700 H         182.6679  196.8033   72.4492 H        99      M_A    0.0000
    701 C         181.0872  197.1580   70.2661 C.3     100      M_A    0.0000
    702 C         181.4419  195.7021   69.9901 C.3     100      M_A    0.0000
    703 O         180.4586  195.1494   69.1164 O.3     100      M_A    0.0000
    704 H         180.7130  197.6346   69.3529 H       100      M_A    0.0000
    705 H         180.2864  197.1959   71.0133 H       100      M_A    0.0000
    706 H         181.4377  195.1635   70.9481 H       100      M_A    0.0000
    707 H         182.4392  195.6118   69.5392 H       100      M_A    0.0000
    708 C         179.7334  196.1731   68.4693 C.3     101      M_A    0.0000
    709 C         178.2274  196.0324   68.6520 C.3     101      M_A    0.0000
    710 O         177.5712  196.7220   67.5891 O.3     101      M_A    0.0000
    711 H         179.9861  196.1675   67.4029 H       101      M_A    0.0000
    712 H         180.0558  197.1356   68.8825 H       101      M_A    0.0000
    713 H         177.9578  196.4859   69.6161 H       101      M_A    0.0000
    714 H         177.9222  194.9774   68.6610 H       101      M_A    0.0000
    715 C         177.6548  195.9844   66.3885 C.3     102      M_A    0.0000
    716 C         177.1264  196.7566   65.1860 C.3     102      M_A    0.0000
    717 O         175.7226  196.5267   65.0756 O.3     102      M_A    0.0000
    718 H         177.0997  195.0471   66.5083 H       102      M_A    0.0000
    719 H         178.7063  195.7285   66.2157 H       102      M_A    0.0000
    720 H         177.6396  196.3821   64.2891 H       102      M_A    0.0000
    721 H         177.3252  197.8323   65.2826 H       102      M_A    0.0000
    722 C         174.9993  197.4923   65.8084 C.3     103      M_A    0.0000
    723 C         173.5880  197.7007   65.2734 C.3     103      M_A    0.0000
    724 O         173.4942  199.0167   64.7301 O.3     103      M_A    0.0000
    725 H         175.5524  198.4383   65.7916 H       103      M_A    0.0000
    726 H         174.9414  197.1592   66.8509 H       103      M_A    0.0000
    727 H         172.8865  197.5903   66.1123 H       103      M_A    0.0000
    728 H         173.3377  196.9575   64.5046 H       103      M_A    0.0000
    729 C         172.3625  199.1324   63.8945 C.3     104      M_A    0.0000
    730 C         172.5057  198.3445   62.5983 C.3     104      M_A    0.0000
    731 O         171.2712  198.4078   61.8856 O.3     104      M_A    0.0000
    732 H         172.1906  200.1922   63.6745 H       104      M_A    0.0000
    733 H         171.4905  198.7611   64.4446 H       104      M_A    0.0000
    734 H         172.7359  197.3016   62.8579 H       104      M_A    0.0000
    735 H         173.3197  198.7410   61.9768 H       104      M_A    0.0000
    736 C         170.4117  197.3605   62.2818 C.3     105      M_A    0.0000
    737 C         169.6995  196.7071   61.1039 C.3     105      M_A    0.0000
    738 O         168.2918  196.8631   61.2766 O.3     105      M_A    0.0000
    739 H         169.6782  197.7538   62.9948 H       105      M_A    0.0000
    740 H         171.0098  196.6043   62.8027 H       105      M_A    0.0000
    741 H         169.9607  195.6395   61.0982 H       105      M_A    0.0000
    742 H         170.0132  197.1518   60.1500 H       105      M_A    0.0000
    743 C         167.5862  196.2010   60.2488 C.3     106      M_A    0.0000
    744 C         167.9054  196.7545   58.8656 C.3     106      M_A    0.0000
    745 O         167.5051  195.7973   57.8862 O.3     106      M_A    0.0000
    746 H         166.5115  196.2805   60.4479 H       106      M_A    0.0000
    747 H         167.8526  195.1384   60.2793 H       106      M_A    0.0000
    748 H         168.9905  196.9194   58.8073 H       106      M_A    0.0000
    749 H         167.3937  197.7101   58.6891 H       106      M_A    0.0000
    750 C         168.3596  194.6740   57.9071 C.3     107      M_A    0.0000
    751 C         168.2195  193.8055   56.6631 C.3     107      M_A    0.0000
    752 O         167.7679  192.5107   57.0576 O.3     107      M_A    0.0000
    753 H         168.1474  194.0832   58.8054 H       107      M_A    0.0000
    754 H         169.3933  195.0307   57.9800 H       107      M_A    0.0000
    755 H         169.2077  193.7294   56.1882 H       107      M_A    0.0000
    756 H         167.5159  194.2465   55.9444 H       107      M_A    0.0000
    757 C         167.9763  191.5727   56.0235 C.3     108      M_A    0.0000
    758 C         167.1310  191.8611   54.7891 C.3     108      M_A    0.0000
    759 O         167.0780  190.6833   53.9854 O.3     108      M_A    0.0000
    760 H         167.7563  190.5691   56.4051 H       108      M_A    0.0000
    761 H         169.0360  191.5982   55.7457 H       108      M_A    0.0000
    762 H         167.6126  192.6755   54.2298 H       108      M_A    0.0000
    763 H         166.1152  192.1749   55.0641 H       108      M_A    0.0000
    764 C         168.3268  190.0251   53.9811 C.3     109      M_A    0.0000
    765 C         168.7202  189.5197   52.5987 C.3     109      M_A    0.0000
    766 O         168.2327  188.1879   52.4425 O.3     109      M_A    0.0000
    767 H         168.2909  189.1912   54.6913 H       109      M_A    0.0000
    768 H         169.0875  190.7304   54.3343 H       109      M_A    0.0000
    769 H         169.8173  189.5277   52.5331 H       109      M_A    0.0000
    770 H         168.3150  190.1639   51.8069 H       109      M_A    0.0000
    771 C         168.3526  187.7663   51.1007 C.3     110      M_A    0.0000
    772 C         167.0053  187.6466   50.3994 C.3     110      M_A    0.0000
    773 O         166.8008  186.2835   50.0308 O.3     110      M_A    0.0000
    774 H         168.8772  186.8044   51.0764 H       110      M_A    0.0000
    775 H         168.9710  188.4961   50.5658 H       110      M_A    0.0000
    776 H         167.0324  188.2783   49.5004 H       110      M_A    0.0000
    777 H         166.1859  187.9885   51.0459 H       110      M_A    0.0000
    778 C         165.4240  185.9729   50.0101 C.3     111      M_A    0.0000
    779 C         165.1521  184.5343   49.5883 C.3     111      M_A    0.0000
    780 O         164.0934  184.5301   48.6319 O.3     111      M_A    0.0000
    781 H         164.9137  186.6672   49.3329 H       111      M_A    0.0000
    782 H         165.0210  186.1331   51.0165 H       111      M_A    0.0000
    783 H         164.8527  183.9686   50.4818 H       111      M_A    0.0000
    784 H         166.0486  184.0668   49.1592 H       111      M_A    0.0000
    785 C         163.3970  183.3026   48.6630 C.3     112      M_A    0.0000
    786 C         163.0341  182.7972   47.2722 C.3     112      M_A    0.0000
    787 O         161.8170  182.0574   47.3575 O.3     112      M_A    0.0000
    788 H         162.4916  183.4234   49.2685 H       112      M_A    0.0000
    789 H         164.0325  182.5603   49.1591 H       112      M_A    0.0000
    790 H         163.8467  182.1437   46.9250 H       112      M_A    0.0000
    791 H         162.9210  183.6270   46.5618 H       112      M_A    0.0000
    792 C         161.8277  180.9726   46.4543 C.3     113      M_A    0.0000
    793 C         160.9047  181.1911   45.2620 C.3     113      M_A    0.0000
    794 O         160.3574  179.9330   44.8703 O.3     113      M_A    0.0000
    795 H         161.5411  180.0611   46.9910 H       113      M_A    0.0000
    796 H         162.8534  180.8373   46.0929 H       113      M_A    0.0000
    797 H         161.5028  181.6118   44.4414 H       113      M_A    0.0000
    798 H         160.0964  181.8937   45.5052 H       113      M_A    0.0000
    799 C         159.3369  180.1092   43.9111 C.3     114      M_A    0.0000
    800 C         158.6128  178.8108   43.5777 C.3     114      M_A    0.0000
    801 O         157.9216  178.9770   42.3406 O.3     114      M_A    0.0000
    802 H         159.7736  180.5412   43.0035 H       114      M_A    0.0000
    803 H         158.6137  180.8306   44.3082 H       114      M_A    0.0000
    804 H         157.8946  178.6051   44.3839 H       114      M_A    0.0000
    805 H         159.3139  177.9684   43.5069 H       114      M_A    0.0000
    806 C         156.7712  178.1600   42.2977 C.3     115      M_A    0.0000
    807 C         156.3835  177.7648   40.8782 C.3     115      M_A    0.0000
    808 O         155.1657  178.4248   40.5359 O.3     115      M_A    0.0000
    809 H         155.9422  178.6888   42.7816 H       115      M_A    0.0000
    810 H         156.9724  177.2534   42.8794 H       115      M_A    0.0000
    811 H         156.2388  176.6755   40.8559 H       115      M_A    0.0000
    812 H         157.1704  178.0306   40.1597 H       115      M_A    0.0000
    813 C         154.7600  178.0779   39.2291 C.3     116      M_A    0.0000
    814 C         155.7346  178.5622   38.1628 C.3     116      M_A    0.0000
    815 O         155.1503  179.6690   37.4776 O.3     116      M_A    0.0000
    816 H         153.7627  178.4934   39.0451 H       116      M_A    0.0000
    817 H         154.6812  176.9863   39.1728 H       116      M_A    0.0000
    818 H         155.9083  177.7352   37.4600 H       116      M_A    0.0000
    819 H         156.6959  178.8577   38.6040 H       116      M_A    0.0000
    820 C         155.5660  179.6973   36.1289 C.3     117      M_A    0.0000
    821 C         156.9988  180.1889   35.9656 C.3     117      M_A    0.0000
    822 O         156.9730  181.4821   35.3632 O.3     117      M_A    0.0000
    823 H         154.8810  180.3359   35.5597 H       117      M_A    0.0000
    824 H         155.4877  178.6817   35.7245 H       117      M_A    0.0000
    825 H         157.5288  179.4814   35.3125 H       117      M_A    0.0000
    826 H         157.5189  180.2342   36.9318 H       117      M_A    0.0000
    827 C         156.5751  182.4611   36.2991 C.3     118      M_A    0.0000
    828 C         156.8549  183.8802   35.8203 C.3     118      M_A    0.0000
    829 O         158.1738  184.2470   36.2222 O.3     118      M_A    0.0000
    830 H         157.0904  182.2749   37.2483 H       118      M_A    0.0000
    831 H         155.4996  182.3487   36.4767 H       118      M_A    0.0000
    832 H         156.1200  184.5488   36.2902 H       118      M_A    0.0000
    833 H         156.7578  183.9608   34.7293 H       118      M_A    0.0000
    834 C         158.3611  185.6415   36.1077 C.3     119      M_A    0.0000
    835 C         157.8891  186.1899   34.7669 C.3     119      M_A    0.0000
    836 O         159.0322  186.5347   33.9856 O.3     119      M_A    0.0000
    837 H         159.4225  185.8704   36.2562 H       119      M_A    0.0000
    838 H         157.7996  186.1301   36.9120 H       119      M_A    0.0000
    839 H         157.2828  187.0860   34.9603 H       119      M_A    0.0000
    840 H         157.2731  185.4568   34.2291 H       119      M_A    0.0000
    841 C         158.7031  186.5839   32.6138 C.3     120      M_A    0.0000
    842 C         159.1026  187.9009   31.9602 C.3     120      M_A    0.0000
    843 O         158.0964  188.2675   31.0173 O.3     120      M_A    0.0000
    844 H         157.6255  186.4185   32.5011 H       120      M_A    0.0000
    845 H         159.2206  185.7614   32.1072 H       120      M_A    0.0000
    846 H         160.0614  187.7480   31.4452 H       120      M_A    0.0000
    847 H         159.2264  188.6967   32.7068 H       120      M_A    0.0000
    848 C         158.6671  188.9356   29.9125 C.3     121      M_A    0.0000
    849 C         158.8836  190.4213   30.1716 C.3     121      M_A    0.0000
    850 O         158.5025  191.1496   29.0054 O.3     121      M_A    0.0000
    851 H         158.0192  188.7956   29.0397 H       121      M_A    0.0000
    852 H         159.6321  188.4668   29.6892 H       121      M_A    0.0000
    853 H         159.9514  190.5782   30.3796 H       121      M_A    0.0000
    854 H         158.3017  190.7655   31.0371 H       121      M_A    0.0000
    855 C         159.1831  192.3847   28.9433 C.3     122      M_A    0.0000
    856 C         158.2363  193.5721   28.8201 C.3     122      M_A    0.0000
    857 O         158.4874  194.2308   27.5796 O.3     122      M_A    0.0000
    858 H         159.8764  192.3657   28.0947 H       122      M_A    0.0000
    859 H         159.7783  192.4947   29.8568 H       122      M_A    0.0000
    860 H         158.4386  194.2565   29.6559 H       122      M_A    0.0000
    861 H         157.1865  193.2537   28.8714 H       122      M_A    0.0000
    862 C         157.3495  194.1762   26.7460 C.3     123      M_A    0.0000
    863 C         157.2345  195.3870   25.8283 C.3     123      M_A    0.0000
    864 O         155.9074  195.4417   25.3071 O.3     123      M_A    0.0000
    865 H         156.4543  194.0914   27.3724 H       123      M_A    0.0000
    866 H         157.4152  193.2688   26.1350 H       123      M_A    0.0000
    867 H         157.9548  195.2615   25.0077 H       123      M_A    0.0000
    868 H         157.4675  196.3177   26.3626 H       123      M_A    0.0000
    869 C         155.8652  196.2179   24.1288 C.3     124      M_A    0.0000
    870 C         155.3331  197.6250   24.3706 C.3     124      M_A    0.0000
    871 O         154.7781  198.1197   23.1528 O.3     124      M_A    0.0000
    872 H         155.2452  195.7027   23.3864 H       124      M_A    0.0000
    873 H         156.8819  196.2841   23.7251 H       124      M_A    0.0000
    874 H         156.1754  198.2581   24.6833 H       124      M_A    0.0000
    875 H         154.5720  197.6345   25.1622 H       124      M_A    0.0000
    876 C         154.7151  199.5298   23.1693 C.3     125      M_A    0.0000
    877 C         153.6010  200.0789   22.2869 C.3     125      M_A    0.0000
    878 O         154.1737  200.5547   21.0698 O.3     125      M_A    0.0000
    879 H         155.6829  199.9321   22.8489 H       125      M_A    0.0000
    880 H         154.5459  199.8536   24.2025 H       125      M_A    0.0000
    881 H         153.1191  200.9080   22.8239 H       125      M_A    0.0000
    882 H         152.8454  199.3114   22.0724 H       125      M_A    0.0000
    883 C         154.5258  199.4770   20.2288 C.3     126      M_A    0.0000
    884 C         153.9989  199.6428   18.8089 C.3     126      M_A    0.0000
    885 O         152.7054  199.0459   18.7282 O.3     126      M_A    0.0000
    886 H         154.1455  198.5467   20.6659 H       126      M_A    0.0000
    887 H         155.6191  199.4081   20.1991 H       126      M_A    0.0000
    888 H         154.6918  199.1302   18.1269 H       126      M_A    0.0000
    889 H         153.9429  200.7020   18.5240 H       126      M_A    0.0000
    890 C         151.7169  199.9284   19.2145 C.3     127      M_A    0.0000
    891 C         150.6901  200.3035   18.1532 C.3     127      M_A    0.0000
    892 O         150.9051  201.6604   17.7680 O.3     127      M_A    0.0000
    893 H         152.2054  200.8298   19.6019 H       127      M_A    0.0000
    894 H         151.2046  199.4416   20.0521 H       127      M_A    0.0000
    895 H         149.6894  200.1928   18.5940 H       127      M_A    0.0000
    896 H         150.7635  199.6471   17.2758 H       127      M_A    0.0000
    897 C         150.1260  201.9879   16.6373 C.3     128      M_A    0.0000
    898 C         150.9717  202.4186   15.4454 C.3     128      M_A    0.0000
    899 O         150.2130  203.3292   14.6512 O.3     128      M_A    0.0000
    900 H         149.4237  202.7843   16.9088 H       128      M_A    0.0000
    901 H         149.5378  201.1062   16.3590 H       128      M_A    0.0000
    902 H         151.2145  201.5215   14.8587 H       128      M_A    0.0000
    903 H         151.9082  202.8920   15.7694 H       128      M_A    0.0000
    904 C         151.0525  204.0388   13.7655 C.3     129      M_A    0.0000
    905 C         150.4154  205.3253   13.2553 C.3     129      M_A    0.0000
    906 O         149.9413  205.1058   11.9276 O.3     129      M_A    0.0000
    907 H         151.3122  203.3869   12.9237 H       129      M_A    0.0000
    908 H         151.9802  204.2842   14.2948 H       129      M_A    0.0000
    909 H         151.1860  206.1091   13.2536 H       129      M_A    0.0000
    910 H         149.5878  205.6460   13.9022 H       129      M_A    0.0000
    911 C         148.8046  205.9007   11.6654 C.3     130      M_A    0.0000
    912 C         147.7655  205.1789   10.8165 C.3     130      M_A    0.0000
    913 O         147.7494  205.7657    9.5161 O.3     130      M_A    0.0000
    914 H         149.1238  206.8232   11.1671 H       130      M_A    0.0000
    915 H         148.3526  206.1797   12.6240 H       130      M_A    0.0000
    916 H         146.7855  205.3060   11.2976 H       130      M_A    0.0000
    917 H         147.9851  204.1054   10.7423 H       130      M_A    0.0000
    918 C         147.0731  204.9313    8.6001 C.3     131      M_A    0.0000
    919 C         145.8006  205.5671    8.0544 C.3     131      M_A    0.0000
    920 O         144.8079  204.5526    7.9094 O.3     131      M_A    0.0000
    921 H         146.8385  203.9806    9.0923 H       131      M_A    0.0000
    922 H         147.7515  204.7159    7.7668 H       131      M_A    0.0000
    923 H         146.0334  206.0069    7.0744 H       131      M_A    0.0000
    924 H         145.4332  206.3608    8.7186 H       131      M_A    0.0000
    925 C         143.8150  204.9532    6.9895 C.3     132      M_A    0.0000
    926 C         142.4248  205.0054    7.6107 C.3     132      M_A    0.0000
    927 O         141.5881  204.0645    6.9395 O.3     132      M_A    0.0000
    928 H         143.8217  204.2640    6.1374 H       132      M_A    0.0000
    929 H         144.0769  205.9489    6.6141 H       132      M_A    0.0000
    930 H         142.0297  206.0220    7.4754 H       132      M_A    0.0000
    931 H         142.4578  204.7802    8.6851 H       132      M_A    0.0000
    932 C         140.6112  203.5489    7.8185 C.3     133      M_A    0.0000
    933 C         139.3212  203.1655    7.1040 C.3     133      M_A    0.0000
    934 O         138.2700  203.0914    8.0660 O.3     133      M_A    0.0000
    935 H         140.4048  204.2933    8.5958 H       133      M_A    0.0000
    936 H         141.0258  202.6613    8.3095 H       133      M_A    0.0000
    937 H         139.4710  202.1826    6.6356 H       133      M_A    0.0000
    938 H         139.0653  203.8932    6.3223 H       133      M_A    0.0000
    939 C         137.0105  203.0749    7.4290 C.3     134      M_A    0.0000
    940 C         136.2548  201.7711    7.6543 C.3     134      M_A    0.0000
    941 O         135.7554  201.3091    6.4001 O.3     134      M_A    0.0000
    942 H         137.1530  203.2476    6.3561 H       134      M_A    0.0000
    943 H         136.4155  203.9062    7.8237 H       134      M_A    0.0000
    944 H         135.4192  201.9762    8.3381 H       134      M_A    0.0000
    945 H         136.9011  201.0070    8.1065 H       134      M_A    0.0000
    946 C         134.5956  200.5255    6.5825 C.3     135      M_A    0.0000
    947 C         134.6882  199.1692    5.8944 C.3     135      M_A    0.0000
    948 O         134.1114  199.2756    4.5938 O.3     135      M_A    0.0000
    949 H         133.7291  201.0809    6.2059 H       135      M_A    0.0000
    950 H         134.4508  200.3721    7.6579 H       135      M_A    0.0000
    951 H         134.1243  198.4431    6.4966 H       135      M_A    0.0000
    952 H         135.7299  198.8299    5.8174 H       135      M_A    0.0000
    953 C         133.4420  198.0827    4.2453 C.3     136      M_A    0.0000
    954 C         134.3761  197.0369    3.6493 C.3     136      M_A    0.0000
    955 O         134.2729  197.0887    2.2271 O.3     136      M_A    0.0000
    956 H         132.6402  198.3197    3.5367 H       136      M_A    0.0000
    957 H         132.9770  197.6736    5.1493 H       136      M_A    0.0000
    958 H         134.0577  196.0498    4.0128 H       136      M_A    0.0000
    959 H         135.4163  197.2074    3.9575 H       136      M_A    0.0000
    960 C         135.3596  197.7992    1.6731 C.3     137      M_A    0.0000
    961 C         135.5082  199.1974    2.2601 C.3     137      M_A    0.0000
    962 O         136.6719  199.8064    1.7025 O.3     137      M_A    0.0000
    963 H         135.2281  197.8584    0.5867 H       137      M_A    0.0000
    964 H         136.2760  197.2304    1.8669 H       137      M_A    0.0000
    965 H         135.6215  199.0989    3.3489 H       137      M_A    0.0000
    966 H         134.6241  199.8148    2.0521 H       137      M_A    0.0000
    967 H         136.9130  200.6147    2.2014 H       137      M_A    0.0000
    968 H         146.7088   96.9375   71.6890 H         0      M_A    0.0000
@<TRIPOS>BOND
     1     1     2      1
     2     1     4      1
     3     1     5      1
     4     1   968      1
     5     2     3      1
     6     2     6      1
     7     2     7      1
     8     3     8      1
     9     8     9      1
    10     8    11      1
    11     8    12      1
    12     9    10      1
    13     9    13      1
    14     9    14      1
    15    10    15      1
    16    15    16      1
    17    15    18      1
    18    15    19      1
    19    16    17      1
    20    16    20      1
    21    16    21      1
    22    17    22      1
    23    22    23      1
    24    22    25      1
    25    22    26      1
    26    23    24      1
    27    23    27      1
    28    23    28      1
    29    24    29      1
    30    29    30      1
    31    29    32      1
    32    29    33      1
    33    30    31      1
    34    30    34      1
    35    30    35      1
    36    31    36      1
    37    36    37      1
    38    36    39      1
    39    36    40      1
    40    37    38      1
    41    37    41      1
    42    37    42      1
    43    38    43      1
    44    43    44      1
    45    43    46      1
    46    43    47      1
    47    44    45      1
    48    44    48      1
    49    44    49      1
    50    45    50      1
    51    50    51      1
    52    50    53      1
    53    50    54      1
    54    51    52      1
    55    51    55      1
    56    51    56      1
    57    52    57      1
    58    57    58      1
    59    57    60      1
    60    57    61      1
    61    58    59      1
    62    58    62      1
    63    58    63      1
    64    59    64      1
    65    64    65      1
    66    64    67      1
    67    64    68      1
    68    65    66      1
    69    65    69      1
    70    65    70      1
    71    66    71      1
    72    71    72      1
    73    71    74      1
    74    71    75      1
    75    72    73      1
    76    72    76      1
    77    72    77      1
    78    73    78      1
    79    78    79      1
    80    78    81      1
    81    78    82      1
    82    79    80      1
    83    79    83      1
    84    79    84      1
    85    80    85      1
    86    85    86      1
    87    85    88      1
    88    85    89      1
    89    86    87      1
    90    86    90      1
    91    86    91      1
    92    87    92      1
    93    92    93      1
    94    92    95      1
    95    92    96      1
    96    93    94      1
    97    93    97      1
    98    93    98      1
    99    94    99      1
   100    99   100      1
   101    99   102      1
   102    99   103      1
   103   100   101      1
   104   100   104      1
   105   100   105      1
   106   101   106      1
   107   106   107      1
   108   106   109      1
   109   106   110      1
   110   107   108      1
   111   107   111      1
   112   107   112      1
   113   108   113      1
   114   113   114      1
   115   113   116      1
   116   113   117      1
   117   114   115      1
   118   114   118      1
   119   114   119      1
   120   115   120      1
   121   120   121      1
   122   120   123      1
   123   120   124      1
   124   121   122      1
   125   121   125      1
   126   121   126      1
   127   122   127      1
   128   127   128      1
   129   127   130      1
   130   127   131      1
   131   128   129      1
   132   128   132      1
   133   128   133      1
   134   129   134      1
   135   134   135      1
   136   134   137      1
   137   134   138      1
   138   135   136      1
   139   135   139      1
   140   135   140      1
   141   136   141      1
   142   141   142      1
   143   141   144      1
   144   141   145      1
   145   142   143      1
   146   142   146      1
   147   142   147      1
   148   143   148      1
   149   148   149      1
   150   148   151      1
   151   148   152      1
   152   149   150      1
   153   149   153      1
   154   149   154      1
   155   150   155      1
   156   155   156      1
   157   155   158      1
   158   155   159      1
   159   156   157      1
   160   156   160      1
   161   156   161      1
   162   157   162      1
   163   162   163      1
   164   162   165      1
   165   162   166      1
   166   163   164      1
   167   163   167      1
   168   163   168      1
   169   164   169      1
   170   169   170      1
   171   169   172      1
   172   169   173      1
   173   170   171      1
   174   170   174      1
   175   170   175      1
   176   171   176      1
   177   176   177      1
   178   176   179      1
   179   176   180      1
   180   177   178      1
   181   177   181      1
   182   177   182      1
   183   178   183      1
   184   183   184      1
   185   183   186      1
   186   183   187      1
   187   184   185      1
   188   184   188      1
   189   184   189      1
   190   185   190      1
   191   190   191      1
   192   190   193      1
   193   190   194      1
   194   191   192      1
   195   191   195      1
   196   191   196      1
   197   192   197      1
   198   197   198      1
   199   197   200      1
   200   197   201      1
   201   198   199      1
   202   198   202      1
   203   198   203      1
   204   199   204      1
   205   204   205      1
   206   204   207      1
   207   204   208      1
   208   205   206      1
   209   205   209      1
   210   205   210      1
   211   206   211      1
   212   211   212      1
   213   211   214      1
   214   211   215      1
   215   212   213      1
   216   212   216      1
   217   212   217      1
   218   213   218      1
   219   218   219      1
   220   218   221      1
   221   218   222      1
   222   219   220      1
   223   219   223      1
   224   219   224      1
   225   220   225      1
   226   225   226      1
   227   225   228      1
   228   225   229      1
   229   226   227      1
   230   226   230      1
   231   226   231      1
   232   227   232      1
   233   232   233      1
   234   232   235      1
   235   232   236      1
   236   233   234      1
   237   233   237      1
   238   233   238      1
   239   234   239      1
   240   239   240      1
   241   239   242      1
   242   239   243      1
   243   240   241      1
   244   240   244      1
   245   240   245      1
   246   241   246      1
   247   246   247      1
   248   246   249      1
   249   246   250      1
   250   247   248      1
   251   247   251      1
   252   247   252      1
   253   248   253      1
   254   253   254      1
   255   253   256      1
   256   253   257      1
   257   254   255      1
   258   254   258      1
   259   254   259      1
   260   255   260      1
   261   260   261      1
   262   260   263      1
   263   260   264      1
   264   261   262      1
   265   261   265      1
   266   261   266      1
   267   262   267      1
   268   267   268      1
   269   267   270      1
   270   267   271      1
   271   268   269      1
   272   268   272      1
   273   268   273      1
   274   269   274      1
   275   274   275      1
   276   274   277      1
   277   274   278      1
   278   275   276      1
   279   275   279      1
   280   275   280      1
   281   276   281      1
   282   281   282      1
   283   281   284      1
   284   281   285      1
   285   282   283      1
   286   282   286      1
   287   282   287      1
   288   283   288      1
   289   288   289      1
   290   288   291      1
   291   288   292      1
   292   289   290      1
   293   289   293      1
   294   289   294      1
   295   290   295      1
   296   295   296      1
   297   295   298      1
   298   295   299      1
   299   296   297      1
   300   296   300      1
   301   296   301      1
   302   297   302      1
   303   302   303      1
   304   302   305      1
   305   302   306      1
   306   303   304      1
   307   303   307      1
   308   303   308      1
   309   304   309      1
   310   309   310      1
   311   309   312      1
   312   309   313      1
   313   310   311      1
   314   310   314      1
   315   310   315      1
   316   311   316      1
   317   316   317      1
   318   316   319      1
   319   316   320      1
   320   317   318      1
   321   317   321      1
   322   317   322      1
   323   318   323      1
   324   323   324      1
   325   323   326      1
   326   323   327      1
   327   324   325      1
   328   324   328      1
   329   324   329      1
   330   325   330      1
   331   330   331      1
   332   330   333      1
   333   330   334      1
   334   331   332      1
   335   331   335      1
   336   331   336      1
   337   332   337      1
   338   337   338      1
   339   337   340      1
   340   337   341      1
   341   338   339      1
   342   338   342      1
   343   338   343      1
   344   339   344      1
   345   344   345      1
   346   344   347      1
   347   344   348      1
   348   345   346      1
   349   345   349      1
   350   345   350      1
   351   346   351      1
   352   351   352      1
   353   351   354      1
   354   351   355      1
   355   352   353      1
   356   352   356      1
   357   352   357      1
   358   353   358      1
   359   358   359      1
   360   358   361      1
   361   358   362      1
   362   359   360      1
   363   359   363      1
   364   359   364      1
   365   360   365      1
   366   365   366      1
   367   365   368      1
   368   365   369      1
   369   366   367      1
   370   366   370      1
   371   366   371      1
   372   367   372      1
   373   372   373      1
   374   372   375      1
   375   372   376      1
   376   373   374      1
   377   373   377      1
   378   373   378      1
   379   374   379      1
   380   379   380      1
   381   379   382      1
   382   379   383      1
   383   380   381      1
   384   380   384      1
   385   380   385      1
   386   381   386      1
   387   386   387      1
   388   386   389      1
   389   386   390      1
   390   387   388      1
   391   387   391      1
   392   387   392      1
   393   388   393      1
   394   393   394      1
   395   393   396      1
   396   393   397      1
   397   394   395      1
   398   394   398      1
   399   394   399      1
   400   395   400      1
   401   400   401      1
   402   400   403      1
   403   400   404      1
   404   401   402      1
   405   401   405      1
   406   401   406      1
   407   402   407      1
   408   407   408      1
   409   407   410      1
   410   407   411      1
   411   408   409      1
   412   408   412      1
   413   408   413      1
   414   409   414      1
   415   414   415      1
   416   414   417      1
   417   414   418      1
   418   415   416      1
   419   415   419      1
   420   415   420      1
   421   416   421      1
   422   421   422      1
   423   421   424      1
   424   421   425      1
   425   422   423      1
   426   422   426      1
   427   422   427      1
   428   423   428      1
   429   428   429      1
   430   428   431      1
   431   428   432      1
   432   429   430      1
   433   429   433      1
   434   429   434      1
   435   430   435      1
   436   435   436      1
   437   435   438      1
   438   435   439      1
   439   436   437      1
   440   436   440      1
   441   436   441      1
   442   437   442      1
   443   442   443      1
   444   442   445      1
   445   442   446      1
   446   443   444      1
   447   443   447      1
   448   443   448      1
   449   444   449      1
   450   449   450      1
   451   449   452      1
   452   449   453      1
   453   450   451      1
   454   450   454      1
   455   450   455      1
   456   451   456      1
   457   456   457      1
   458   456   459      1
   459   456   460      1
   460   457   458      1
   461   457   461      1
   462   457   462      1
   463   458   463      1
   464   463   464      1
   465   463   466      1
   466   463   467      1
   467   464   465      1
   468   464   468      1
   469   464   469      1
   470   465   470      1
   471   470   471      1
   472   470   473      1
   473   470   474      1
   474   471   472      1
   475   471   475      1
   476   471   476      1
   477   472   477      1
   478   477   478      1
   479   477   480      1
   480   477   481      1
   481   478   479      1
   482   478   482      1
   483   478   483      1
   484   479   484      1
   485   484   485      1
   486   484   487      1
   487   484   488      1
   488   485   486      1
   489   485   489      1
   490   485   490      1
   491   486   491      1
   492   491   492      1
   493   491   494      1
   494   491   495      1
   495   492   493      1
   496   492   496      1
   497   492   497      1
   498   493   498      1
   499   498   499      1
   500   498   501      1
   501   498   502      1
   502   499   500      1
   503   499   503      1
   504   499   504      1
   505   500   505      1
   506   505   506      1
   507   505   508      1
   508   505   509      1
   509   506   507      1
   510   506   510      1
   511   506   511      1
   512   507   512      1
   513   512   513      1
   514   512   515      1
   515   512   516      1
   516   513   514      1
   517   513   517      1
   518   513   518      1
   519   514   519      1
   520   519   520      1
   521   519   522      1
   522   519   523      1
   523   520   521      1
   524   520   524      1
   525   520   525      1
   526   521   526      1
   527   526   527      1
   528   526   529      1
   529   526   530      1
   530   527   528      1
   531   527   531      1
   532   527   532      1
   533   528   533      1
   534   533   534      1
   535   533   536      1
   536   533   537      1
   537   534   535      1
   538   534   538      1
   539   534   539      1
   540   535   540      1
   541   540   541      1
   542   540   543      1
   543   540   544      1
   544   541   542      1
   545   541   545      1
   546   541   546      1
   547   542   547      1
   548   547   548      1
   549   547   550      1
   550   547   551      1
   551   548   549      1
   552   548   552      1
   553   548   553      1
   554   549   554      1
   555   554   555      1
   556   554   557      1
   557   554   558      1
   558   555   556      1
   559   555   559      1
   560   555   560      1
   561   556   561      1
   562   561   562      1
   563   561   564      1
   564   561   565      1
   565   562   563      1
   566   562   566      1
   567   562   567      1
   568   563   568      1
   569   568   569      1
   570   568   571      1
   571   568   572      1
   572   569   570      1
   573   569   573      1
   574   569   574      1
   575   570   575      1
   576   575   576      1
   577   575   578      1
   578   575   579      1
   579   576   577      1
   580   576   580      1
   581   576   581      1
   582   577   582      1
   583   582   583      1
   584   582   585      1
   585   582   586      1
   586   583   584      1
   587   583   587      1
   588   583   588      1
   589   584   589      1
   590   589   590      1
   591   589   592      1
   592   589   593      1
   593   590   591      1
   594   590   594      1
   595   590   595      1
   596   591   596      1
   597   596   597      1
   598   596   599      1
   599   596   600      1
   600   597   598      1
   601   597   601      1
   602   597   602      1
   603   598   603      1
   604   603   604      1
   605   603   606      1
   606   603   607      1
   607   604   605      1
   608   604   608      1
   609   604   609      1
   610   605   610      1
   611   610   611      1
   612   610   613      1
   613   610   614      1
   614   611   612      1
   615   611   615      1
   616   611   616      1
   617   612   617      1
   618   617   618      1
   619   617   620      1
   620   617   621      1
   621   618   619      1
   622   618   622      1
   623   618   623      1
   624   619   624      1
   625   624   625      1
   626   624   627      1
   627   624   628      1
   628   625   626      1
   629   625   629      1
   630   625   630      1
   631   626   631      1
   632   631   632      1
   633   631   634      1
   634   631   635      1
   635   632   633      1
   636   632   636      1
   637   632   637      1
   638   633   638      1
   639   638   639      1
   640   638   641      1
   641   638   642      1
   642   639   640      1
   643   639   643      1
   644   639   644      1
   645   640   645      1
   646   645   646      1
   647   645   648      1
   648   645   649      1
   649   646   647      1
   650   646   650      1
   651   646   651      1
   652   647   652      1
   653   652   653      1
   654   652   655      1
   655   652   656      1
   656   653   654      1
   657   653   657      1
   658   653   658      1
   659   654   659      1
   660   659   660      1
   661   659   662      1
   662   659   663      1
   663   660   661      1
   664   660   664      1
   665   660   665      1
   666   661   666      1
   667   666   667      1
   668   666   669      1
   669   666   670      1
   670   667   668      1
   671   667   671      1
   672   667   672      1
   673   668   673      1
   674   673   674      1
   675   673   676      1
   676   673   677      1
   677   674   675      1
   678   674   678      1
   679   674   679      1
   680   675   680      1
   681   680   681      1
   682   680   683      1
   683   680   684      1
   684   681   682      1
   685   681   685      1
   686   681   686      1
   687   682   687      1
   688   687   688      1
   689   687   690      1
   690   687   691      1
   691   688   689      1
   692   688   692      1
   693   688   693      1
   694   689   694      1
   695   694   695      1
   696   694   697      1
   697   694   698      1
   698   695   696      1
   699   695   699      1
   700   695   700      1
   701   696   701      1
   702   701   702      1
   703   701   704      1
   704   701   705      1
   705   702   703      1
   706   702   706      1
   707   702   707      1
   708   703   708      1
   709   708   709      1
   710   708   711      1
   711   708   712      1
   712   709   710      1
   713   709   713      1
   714   709   714      1
   715   710   715      1
   716   715   716      1
   717   715   718      1
   718   715   719      1
   719   716   717      1
   720   716   720      1
   721   716   721      1
   722   717   722      1
   723   722   723      1
   724   722   725      1
   725   722   726      1
   726   723   724      1
   727   723   727      1
   728   723   728      1
   729   724   729      1
   730   729   730      1
   731   729   732      1
   732   729   733      1
   733   730   731      1
   734   730   734      1
   735   730   735      1
   736   731   736      1
   737   736   737      1
   738   736   739      1
   739   736   740      1
   740   737   738      1
   741   737   741      1
   742   737   742      1
   743   738   743      1
   744   743   744      1
   745   743   746      1
   746   743   747      1
   747   744   745      1
   748   744   748      1
   749   744   749      1
   750   745   750      1
   751   750   751      1
   752   750   753      1
   753   750   754      1
   754   751   752      1
   755   751   755      1
   756   751   756      1
   757   752   757      1
   758   757   758      1
   759   757   760      1
   760   757   761      1
   761   758   759      1
   762   758   762      1
   763   758   763      1
   764   759   764      1
   765   764   765      1
   766   764   767      1
   767   764   768      1
   768   765   766      1
   769   765   769      1
   770   765   770      1
   771   766   771      1
   772   771   772      1
   773   771   774      1
   774   771   775      1
   775   772   773      1
   776   772   776      1
   777   772   777      1
   778   773   778      1
   779   778   779      1
   780   778   781      1
   781   778   782      1
   782   779   780      1
   783   779   783      1
   784   779   784      1
   785   780   785      1
   786   785   786      1
   787   785   788      1
   788   785   789      1
   789   786   787      1
   790   786   790      1
   791   786   791      1
   792   787   792      1
   793   792   793      1
   794   792   795      1
   795   792   796      1
   796   793   794      1
   797   793   797      1
   798   793   798      1
   799   794   799      1
   800   799   800      1
   801   799   802      1
   802   799   803      1
   803   800   801      1
   804   800   804      1
   805   800   805      1
   806   801   806      1
   807   806   807      1
   808   806   809      1
   809   806   810      1
   810   807   808      1
   811   807   811      1
   812   807   812      1
   813   808   813      1
   814   813   814      1
   815   813   816      1
   816   813   817      1
   817   814   815      1
   818   814   818      1
   819   814   819      1
   820   815   820      1
   821   820   821      1
   822   820   823      1
   823   820   824      1
   824   821   822      1
   825   821   825      1
   826   821   826      1
   827   822   827      1
   828   827   828      1
   829   827   830      1
   830   827   831      1
   831   828   829      1
   832   828   832      1
   833   828   833      1
   834   829   834      1
   835   834   835      1
   836   834   837      1
   837   834   838      1
   838   835   836      1
   839   835   839      1
   840   835   840      1
   841   836   841      1
   842   841   842      1
   843   841   844      1
   844   841   845      1
   845   842   843      1
   846   842   846      1
   847   842   847      1
   848   843   848      1
   849   848   849      1
   850   848   851      1
   851   848   852      1
   852   849   850      1
   853   849   853      1
   854   849   854      1
   855   850   855      1
   856   855   856      1
   857   855   858      1
   858   855   859      1
   859   856   857      1
   860   856   860      1
   861   856   861      1
   862   857   862      1
   863   862   863      1
   864   862   865      1
   865   862   866      1
   866   863   864      1
   867   863   867      1
   868   863   868      1
   869   864   869      1
   870   869   870      1
   871   869   872      1
   872   869   873      1
   873   870   871      1
   874   870   874      1
   875   870   875      1
   876   871   876      1
   877   876   877      1
   878   876   879      1
   879   876   880      1
   880   877   878      1
   881   877   881      1
   882   877   882      1
   883   878   883      1
   884   883   884      1
   885   883   886      1
   886   883   887      1
   887   884   885      1
   888   884   888      1
   889   884   889      1
   890   885   890      1
   891   890   891      1
   892   890   893      1
   893   890   894      1
   894   891   892      1
   895   891   895      1
   896   891   896      1
   897   892   897      1
   898   897   898      1
   899   897   900      1
   900   897   901      1
   901   898   899      1
   902   898   902      1
   903   898   903      1
   904   899   904      1
   905   904   905      1
   906   904   907      1
   907   904   908      1
   908   905   906      1
   909   905   909      1
   910   905   910      1
   911   906   911      1
   912   911   912      1
   913   911   914      1
   914   911   915      1
   915   912   913      1
   916   912   916      1
   917   912   917      1
   918   913   918      1
   919   918   919      1
   920   918   921      1
   921   918   922      1
   922   919   920      1
   923   919   923      1
   924   919   924      1
   925   920   925      1
   926   925   926      1
   927   925   928      1
   928   925   929      1
   929   926   927      1
   930   926   930      1
   931   926   931      1
   932   927   932      1
   933   932   933      1
   934   932   935      1
   935   932   936      1
   936   933   934      1
   937   933   937      1
   938   933   938      1
   939   934   939      1
   940   939   940      1
   941   939   942      1
   942   939   943      1
   943   940   941      1
   944   940   944      1
   945   940   945      1
   946   941   946      1
   947   946   947      1
   948   946   949      1
   949   946   950      1
   950   947   948      1
   951   947   951      1
   952   947   952      1
   953   948   953      1
   954   953   954      1
   955   953   956      1
   956   953   957      1
   957   954   955      1
   958   954   958      1
   959   954   959      1
   960   955   960      1
   961   960   961      1
   962   960   963      1
   963   960   964      1
   964   961   962      1
   965   961   965      1
   966   961   966      1
   967   962   967      1
