###
### Created by PolyChef-cpp17 on Mon May 12 10:39:11 2025
###

@<TRIPOS>MOLECULE
NO_INFO
324 323 1 0 0
SMALL
USER_CHARGES


@<TRIPOS>ATOM
      1 C         258.8227  120.2137   28.6884 C.3       0      M_A    0.0000
      2 C         258.2318  119.6968   27.3801 C.3       0      M_A    0.0000
      3 O         256.8274  119.9485   27.3312 O.3       0      M_A    0.0000
      4 H         258.5203  119.5452   29.5027 H         0      M_A    0.0000
      5 H         258.4456  121.2146   28.9243 H         0      M_A    0.0000
      6 H         258.4504  118.6257   27.2620 H         0      M_A    0.0000
      7 H         258.6860  120.2008   26.5179 H         0      M_A    0.0000
      8 C         256.3275  120.3381   28.5942 C.3       1      M_A    0.0000
      9 C         254.8329  120.6419   28.5513 C.3       1      M_A    0.0000
     10 O         254.5235  121.7525   29.3932 O.3       1      M_A    0.0000
     11 H         256.5016  119.5132   29.2947 H         1      M_A    0.0000
     12 H         256.8965  121.2026   28.9526 H         1      M_A    0.0000
     13 H         254.2560  119.7506   28.8371 H         1      M_A    0.0000
     14 H         254.5142  120.9020   27.5341 H         1      M_A    0.0000
     15 C         255.6444  122.5944   29.5715 C.3       2      M_A    0.0000
     16 C         255.4290  123.6077   30.6917 C.3       2      M_A    0.0000
     17 O         255.1777  124.9050   30.1516 O.3       2      M_A    0.0000
     18 H         256.5034  121.9626   29.8252 H         2      M_A    0.0000
     19 H         255.8698  123.0948   28.6238 H         2      M_A    0.0000
     20 H         256.2965  123.6169   31.3671 H         2      M_A    0.0000
     21 H         254.5625  123.3345   31.3069 H         2      M_A    0.0000
     22 C         256.3787  125.5575   29.7931 C.3       3      M_A    0.0000
     23 C         256.2181  127.0743   29.7528 C.3       3      M_A    0.0000
     24 O         255.9127  127.5102   28.4282 O.3       3      M_A    0.0000
     25 H         257.1377  125.3011   30.5411 H         3      M_A    0.0000
     26 H         256.7213  125.1705   28.8275 H         3      M_A    0.0000
     27 H         257.1262  127.5624   30.1350 H         3      M_A    0.0000
     28 H         255.3965  127.3995   30.4033 H         3      M_A    0.0000
     29 C         254.6054  127.1319   28.0478 C.3       4      M_A    0.0000
     30 C         254.5149  126.7935   26.5627 C.3       4      M_A    0.0000
     31 O         254.0710  127.9271   25.8172 O.3       4      M_A    0.0000
     32 H         254.3277  126.2462   28.6307 H         4      M_A    0.0000
     33 H         253.9094  127.9347   28.3134 H         4      M_A    0.0000
     34 H         253.8518  125.9298   26.4099 H         4      M_A    0.0000
     35 H         255.4956  126.5029   26.1658 H         4      M_A    0.0000
     36 C         254.3668  127.7901   24.4422 C.3       5      M_A    0.0000
     37 C         255.8576  127.9463   24.1573 C.3       5      M_A    0.0000
     38 O         256.0795  128.1801   22.7666 O.3       5      M_A    0.0000
     39 H         254.0485  126.7897   24.1271 H         5      M_A    0.0000
     40 H         253.7775  128.5189   23.8756 H         5      M_A    0.0000
     41 H         256.4056  127.0591   24.5060 H         5      M_A    0.0000
     42 H         256.2744  128.8008   24.7047 H         5      M_A    0.0000
     43 C         256.0659  126.9738   22.0307 C.3       6      M_A    0.0000
     44 C         256.1855  127.2161   20.5290 C.3       6      M_A    0.0000
     45 O         255.1670  126.5058   19.8248 O.3       6      M_A    0.0000
     46 H         256.9174  126.3679   22.3610 H         6      M_A    0.0000
     47 H         255.1522  126.4194   22.2701 H         6      M_A    0.0000
     48 H         257.1876  126.9314   20.1773 H         6      M_A    0.0000
     49 H         256.0670  128.2809   20.2924 H         6      M_A    0.0000
     50 C         255.3265  126.6246   18.4257 C.3       7      M_A    0.0000
     51 C         254.7604  125.4204   17.6790 C.3       7      M_A    0.0000
     52 O         255.5816  125.0957   16.5573 O.3       7      M_A    0.0000
     53 H         254.7936  127.5257   18.1011 H         7      M_A    0.0000
     54 H         256.3882  126.7676   18.1980 H         7      M_A    0.0000
     55 H         253.7234  125.6178   17.3715 H         7      M_A    0.0000
     56 H         254.7263  124.5365   18.3281 H         7      M_A    0.0000
     57 C         254.8669  124.3528   15.5909 C.3       8      M_A    0.0000
     58 C         254.1100  123.1821   16.2111 C.3       8      M_A    0.0000
     59 O         253.6259  122.3043   15.1946 O.3       8      M_A    0.0000
     60 H         254.1471  125.0268   15.1124 H         8      M_A    0.0000
     61 H         255.5627  124.0088   14.8182 H         8      M_A    0.0000
     62 H         253.2902  123.5523   16.8433 H         8      M_A    0.0000
     63 H         254.7644  122.5951   16.8676 H         8      M_A    0.0000
     64 C         252.2600  122.5375   14.9174 C.3       9      M_A    0.0000
     65 C         251.5185  121.2519   14.5631 C.3       9      M_A    0.0000
     66 O         250.3555  121.5424   13.7879 O.3       9      M_A    0.0000
     67 H         251.8041  122.9744   15.8132 H         9      M_A    0.0000
     68 H         252.1798  123.2750   14.1117 H         9      M_A    0.0000
     69 H         251.2615  120.6977   15.4774 H         9      M_A    0.0000
     70 H         252.1528  120.5846   13.9664 H         9      M_A    0.0000
     71 C         249.1726  121.3394   14.5340 C.3      10      M_A    0.0000
     72 C         247.9480  121.1832   13.6373 C.3      10      M_A    0.0000
     73 O         246.8849  122.0205   14.0919 O.3      10      M_A    0.0000
     74 H         249.2991  120.4243   15.1239 H        10      M_A    0.0000
     75 H         249.0455  122.1707   15.2356 H        10      M_A    0.0000
     76 H         247.6380  120.1290   13.5984 H        10      M_A    0.0000
     77 H         248.1775  121.4752   12.6049 H        10      M_A    0.0000
     78 C         245.7472  121.9088   13.2612 C.3      11      M_A    0.0000
     79 C         244.4482  121.9237   14.0615 C.3      11      M_A    0.0000
     80 O         243.5368  120.9490   13.5545 O.3      11      M_A    0.0000
     81 H         245.7486  122.7608   12.5716 H        11      M_A    0.0000
     82 H         245.8312  120.9967   12.6609 H        11      M_A    0.0000
     83 H         244.0056  122.9301   14.0480 H        11      M_A    0.0000
     84 H         244.6338  121.6829   15.1157 H        11      M_A    0.0000
     85 C         242.2922  121.5289   13.2204 C.3      12      M_A    0.0000
     86 C         241.1715  120.4946   13.1713 C.3      12      M_A    0.0000
     87 O         240.5476  120.4933   11.8873 O.3      12      M_A    0.0000
     88 H         242.0522  122.2757   13.9859 H        12      M_A    0.0000
     89 H         242.3878  122.0539   12.2640 H        12      M_A    0.0000
     90 H         240.4415  120.6878   13.9704 H        12      M_A    0.0000
     91 H         241.5616  119.4845   13.3479 H        12      M_A    0.0000
     92 C         239.6338  119.4233   11.7574 C.3      13      M_A    0.0000
     93 C         238.2012  119.9119   11.5653 C.3      13      M_A    0.0000
     94 O         237.3204  119.2489   12.4723 O.3      13      M_A    0.0000
     95 H         239.9278  118.8336   10.8815 H        13      M_A    0.0000
     96 H         239.7159  118.7747   12.6360 H        13      M_A    0.0000
     97 H         237.8864  119.7640   10.5222 H        13      M_A    0.0000
     98 H         238.1241  120.9888   11.7606 H        13      M_A    0.0000
     99 C         237.6980  117.9013   12.6680 C.3      14      M_A    0.0000
    100 C         236.5985  116.9303   12.2481 C.3      14      M_A    0.0000
    101 O         235.6712  116.7324   13.3152 O.3      14      M_A    0.0000
    102 H         238.5906  117.7100   12.0614 H        14      M_A    0.0000
    103 H         237.9737  117.7563   13.7179 H        14      M_A    0.0000
    104 H         237.0386  115.9779   11.9189 H        14      M_A    0.0000
    105 H         236.0351  117.3216   11.3917 H        14      M_A    0.0000
    106 C         234.4955  116.0896   12.8663 C.3      15      M_A    0.0000
    107 C         233.6357  117.0052   12.0000 C.3      15      M_A    0.0000
    108 O         232.3016  117.0640   12.5047 O.3      15      M_A    0.0000
    109 H         234.7937  115.2176   12.2731 H        15      M_A    0.0000
    110 H         233.9347  115.7244   13.7332 H        15      M_A    0.0000
    111 H         233.6531  116.6648   10.9546 H        15      M_A    0.0000
    112 H         234.0313  118.0285   11.9974 H        15      M_A    0.0000
    113 C         231.9875  115.9187   13.2706 C.3      16      M_A    0.0000
    114 C         230.6463  115.3108   12.8707 C.3      16      M_A    0.0000
    115 O         229.7831  115.2138   14.0035 O.3      16      M_A    0.0000
    116 H         232.7766  115.1762   13.1057 H        16      M_A    0.0000
    117 H         231.9998  116.1848   14.3329 H        16      M_A    0.0000
    118 H         230.7999  114.3291   12.3998 H        16      M_A    0.0000
    119 H         230.1396  115.9347   12.1239 H        16      M_A    0.0000
    120 C         228.4282  115.3771   13.6368 C.3      17      M_A    0.0000
    121 C         227.4938  114.5378   14.5032 C.3      17      M_A    0.0000
    122 O         226.3571  114.1157   13.7497 O.3      17      M_A    0.0000
    123 H         228.1709  116.4354   13.7600 H        17      M_A    0.0000
    124 H         228.3128  115.1295   12.5762 H        17      M_A    0.0000
    125 H         227.1935  115.1043   15.3964 H        17      M_A    0.0000
    126 H         228.0006  113.6352   14.8668 H        17      M_A    0.0000
    127 C         225.1517  114.5549   14.3422 C.3      18      M_A    0.0000
    128 C         223.9244  113.9850   13.6371 C.3      18      M_A    0.0000
    129 O         222.9520  115.0074   13.4206 O.3      18      M_A    0.0000
    130 H         225.1480  114.2206   15.3860 H        18      M_A    0.0000
    131 H         225.1331  115.6499   14.3451 H        18      M_A    0.0000
    132 H         223.5055  113.1513   14.2188 H        18      M_A    0.0000
    133 H         224.1915  113.5726   12.6561 H        18      M_A    0.0000
    134 C         221.7949  114.4957   12.7910 C.3      19      M_A    0.0000
    135 C         220.5530  114.6428   13.6652 C.3      19      M_A    0.0000
    136 O         219.8690  113.3948   13.7771 O.3      19      M_A    0.0000
    137 H         221.6421  115.0550   11.8609 H        19      M_A    0.0000
    138 H         221.9677  113.4480   12.5229 H        19      M_A    0.0000
    139 H         219.8945  115.4248   13.2604 H        19      M_A    0.0000
    140 H         220.8226  114.9618   14.6798 H        19      M_A    0.0000
    141 C         219.0481  113.1523   12.6527 C.3      20      M_A    0.0000
    142 C         217.7231  112.5017   13.0389 C.3      20      M_A    0.0000
    143 O         217.5746  111.2418   12.3843 O.3      20      M_A    0.0000
    144 H         218.8433  114.1152   12.1711 H        20      M_A    0.0000
    145 H         219.5981  112.5336   11.9356 H        20      M_A    0.0000
    146 H         216.8867  113.1756   12.8036 H        20      M_A    0.0000
    147 H         217.6761  112.3180   14.1195 H        20      M_A    0.0000
    148 C         216.3212  110.6551   12.6701 C.3      21      M_A    0.0000
    149 C         216.0650  110.5503   14.1706 C.3      21      M_A    0.0000
    150 O         215.2295  109.4292   14.4585 O.3      21      M_A    0.0000
    151 H         215.5443  111.2843   12.2209 H        21      M_A    0.0000
    152 H         216.2693  109.6718   12.1905 H        21      M_A    0.0000
    153 H         215.6241  111.4847   14.5465 H        21      M_A    0.0000
    154 H         217.0041  110.4098   14.7203 H        21      M_A    0.0000
    155 C         213.8656  109.7330   14.2476 C.3      22      M_A    0.0000
    156 C         212.9981  109.3356   15.4382 C.3      22      M_A    0.0000
    157 O         211.6566  109.0859   15.0188 O.3      22      M_A    0.0000
    158 H         213.7813  110.8148   14.0928 H        22      M_A    0.0000
    159 H         213.5274  109.2398   13.3300 H        22      M_A    0.0000
    160 H         213.0364  110.1151   16.2127 H        22      M_A    0.0000
    161 H         213.3720  108.4169   15.9071 H        22      M_A    0.0000
    162 C         210.7655  109.0742   16.1155 C.3      23      M_A    0.0000
    163 C         209.4158  109.6937   15.7653 C.3      23      M_A    0.0000
    164 O         209.1255  110.7866   16.6367 O.3      23      M_A    0.0000
    165 H         210.6103  108.0306   16.4124 H        23      M_A    0.0000
    166 H         211.2314  109.5930   16.9600 H        23      M_A    0.0000
    167 H         208.6259  108.9299   15.8050 H        23      M_A    0.0000
    168 H         209.4168  110.0828   14.7394 H        23      M_A    0.0000
    169 C         208.3466  111.7717   15.9890 C.3      24      M_A    0.0000
    170 C         207.2964  112.3750   16.9170 C.3      24      M_A    0.0000
    171 O         206.0532  112.5295   16.2325 O.3      24      M_A    0.0000
    172 H         209.0213  112.5672   15.6524 H        24      M_A    0.0000
    173 H         207.8826  111.3326   15.0994 H        24      M_A    0.0000
    174 H         207.6524  113.3338   17.3206 H        24      M_A    0.0000
    175 H         207.1165  111.7243   17.7819 H        24      M_A    0.0000
    176 C         205.4446  111.2800   15.9770 C.3      25      M_A    0.0000
    177 C         204.1448  111.4245   15.1910 C.3      25      M_A    0.0000
    178 O         203.0922  111.8760   16.0430 O.3      25      M_A    0.0000
    179 H         206.1476  110.6762   15.3919 H        25      M_A    0.0000
    180 H         205.2761  110.7635   16.9280 H        25      M_A    0.0000
    181 H         203.8864  110.4718   14.7066 H        25      M_A    0.0000
    182 H         204.2534  112.1606   14.3847 H        25      M_A    0.0000
    183 C         203.2798  113.2227   16.4277 C.3      26      M_A    0.0000
    184 C         201.9551  113.9572   16.6119 C.3      26      M_A    0.0000
    185 O         201.6517  114.7391   15.4568 O.3      26      M_A    0.0000
    186 H         203.8238  113.2287   17.3792 H        26      M_A    0.0000
    187 H         203.9089  113.7226   15.6835 H        26      M_A    0.0000
    188 H         201.9887  114.5789   17.5181 H        26      M_A    0.0000
    189 H         201.1299  113.2484   16.7548 H        26      M_A    0.0000
    190 C         200.2649  114.9895   15.3514 C.3      27      M_A    0.0000
    191 C         199.7932  115.0065   13.9004 C.3      27      M_A    0.0000
    192 O         199.2084  116.2685   13.5791 O.3      27      M_A    0.0000
    193 H         199.7369  114.1919   15.8866 H        27      M_A    0.0000
    194 H         200.0333  115.9349   15.8535 H        27      M_A    0.0000
    195 H         199.0884  114.1819   13.7208 H        27      M_A    0.0000
    196 H         200.6333  114.8491   13.2126 H        27      M_A    0.0000
    197 C         199.2638  116.5257   12.1907 C.3      28      M_A    0.0000
    198 C         198.5104  117.7972   11.8118 C.3      28      M_A    0.0000
    199 O         197.1278  117.5144   11.5967 O.3      28      M_A    0.0000
    200 H         200.3173  116.6412   11.9112 H        28      M_A    0.0000
    201 H         198.8711  115.6577   11.6505 H        28      M_A    0.0000
    202 H         198.9669  118.2587   10.9243 H        28      M_A    0.0000
    203 H         198.5722  118.5438   12.6134 H        28      M_A    0.0000
    204 C         196.4680  117.2079   12.8082 C.3      29      M_A    0.0000
    205 C         194.9510  117.3045   12.6762 C.3      29      M_A    0.0000
    206 O         194.4794  118.5398   13.2142 O.3      29      M_A    0.0000
    207 H         196.7350  116.1822   13.0872 H        29      M_A    0.0000
    208 H         196.8394  117.8727   13.5954 H        29      M_A    0.0000
    209 H         194.4718  116.4454   13.1675 H        29      M_A    0.0000
    210 H         194.6454  117.2669   11.6231 H        29      M_A    0.0000
    211 C         193.0685  118.6125   13.1828 C.3      30      M_A    0.0000
    212 C         192.5236  118.5821   11.7579 C.3      30      M_A    0.0000
    213 O         191.3738  119.4205   11.6438 O.3      30      M_A    0.0000
    214 H         192.6743  117.7496   13.7316 H        30      M_A    0.0000
    215 H         192.7455  119.5163   13.7103 H        30      M_A    0.0000
    216 H         192.2958  117.5483   11.4607 H        30      M_A    0.0000
    217 H         193.2709  118.9504   11.0439 H        30      M_A    0.0000
    218 C         190.3978  119.0944   12.6122 C.3      31      M_A    0.0000
    219 C         188.9794  119.3130   12.0940 C.3      31      M_A    0.0000
    220 O         188.1934  120.0053   13.0639 O.3      31      M_A    0.0000
    221 H         190.5213  118.0369   12.8723 H        31      M_A    0.0000
    222 H         190.5827  119.6820   13.5178 H        31      M_A    0.0000
    223 H         188.5223  118.3507   11.8220 H        31      M_A    0.0000
    224 H         188.9844  119.9209   11.1807 H        31      M_A    0.0000
    225 C         187.0272  120.5563   12.4867 C.3      32      M_A    0.0000
    226 C         185.8049  120.3809   13.3830 C.3      32      M_A    0.0000
    227 O         184.6954  119.8959   12.6270 O.3      32      M_A    0.0000
    228 H         187.2018  121.6271   12.3309 H        32      M_A    0.0000
    229 H         186.8654  120.1008   11.5040 H        32      M_A    0.0000
    230 H         185.5631  121.3288   13.8849 H        32      M_A    0.0000
    231 H         186.0033  119.6526   14.1793 H        32      M_A    0.0000
    232 C         183.6101  119.5518   13.4641 C.3      33      M_A    0.0000
    233 C         182.3734  119.1509   12.6651 C.3      33      M_A    0.0000
    234 O         181.2006  119.7352   13.2316 O.3      33      M_A    0.0000
    235 H         183.9200  118.7046   14.0866 H        33      M_A    0.0000
    236 H         183.3937  120.3921   14.1323 H        33      M_A    0.0000
    237 H         182.2912  118.0555   12.6172 H        33      M_A    0.0000
    238 H         182.4462  119.5001   11.6276 H        33      M_A    0.0000
    239 C         180.1124  118.8339   13.2116 C.3      34      M_A    0.0000
    240 C         178.9002  119.3807   13.9598 C.3      34      M_A    0.0000
    241 O         178.1071  118.3121   14.4764 O.3      34      M_A    0.0000
    242 H         179.8356  118.6630   12.1650 H        34      M_A    0.0000
    243 H         180.4353  117.8745   13.6297 H        34      M_A    0.0000
    244 H         178.3105  120.0340   13.3007 H        34      M_A    0.0000
    245 H         179.2106  120.0004   14.8103 H        34      M_A    0.0000
    246 C         176.7276  118.5542   14.2884 C.3      35      M_A    0.0000
    247 C         176.2957  119.8968   14.8707 C.3      35      M_A    0.0000
    248 O         174.9732  119.8101   15.4010 O.3      35      M_A    0.0000
    249 H         176.5294  118.5551   13.2104 H        35      M_A    0.0000
    250 H         176.1568  117.7301   14.7294 H        35      M_A    0.0000
    251 H         176.3691  120.6834   14.1060 H        35      M_A    0.0000
    252 H         176.9589  120.2009   15.6901 H        35      M_A    0.0000
    253 C         173.9991  120.0000   14.3950 C.3      36      M_A    0.0000
    254 C         172.7407  120.6737   14.9342 C.3      36      M_A    0.0000
    255 O         171.6760  119.7293   15.0457 O.3      36      M_A    0.0000
    256 H         174.4369  120.6369   13.6179 H        36      M_A    0.0000
    257 H         173.7646  119.0329   13.9375 H        36      M_A    0.0000
    258 H         172.4586  121.5204   14.2920 H        36      M_A    0.0000
    259 H         172.9161  121.0904   15.9339 H        36      M_A    0.0000
    260 C         171.1855  119.6566   16.3689 C.3      37      M_A    0.0000
    261 C         169.7056  120.0186   16.4534 C.3      37      M_A    0.0000
    262 O         169.3089  120.1887   17.8141 O.3      37      M_A    0.0000
    263 H         171.3195  118.6277   16.7219 H        37      M_A    0.0000
    264 H         171.7890  120.3080   17.0100 H        37      M_A    0.0000
    265 H         169.0980  119.2512   15.9527 H        37      M_A    0.0000
    266 H         169.5018  120.9619   15.9314 H        37      M_A    0.0000
    267 C         169.0400  118.9474   18.4335 C.3      38      M_A    0.0000
    268 C         167.8009  118.2724   17.8526 C.3      38      M_A    0.0000
    269 O         167.0386  117.6504   18.8869 O.3      38      M_A    0.0000
    270 H         169.9067  118.2959   18.2730 H        38      M_A    0.0000
    271 H         168.9368  119.1015   19.5129 H        38      M_A    0.0000
    272 H         168.0914  117.5473   17.0787 H        38      M_A    0.0000
    273 H         167.1496  119.0049   17.3596 H        38      M_A    0.0000
    274 C         167.8657  117.2047   19.9424 C.3      39      M_A    0.0000
    275 C         167.9035  115.6824   20.0387 C.3      39      M_A    0.0000
    276 O         167.0316  115.2245   21.0721 O.3      39      M_A    0.0000
    277 H         168.8805  117.5733   19.7539 H        39      M_A    0.0000
    278 H         167.5199  117.6517   20.8805 H        39      M_A    0.0000
    279 H         168.9346  115.3380   20.2036 H        39      M_A    0.0000
    280 H         167.5711  115.2213   19.1002 H        39      M_A    0.0000
    281 C         166.3555  114.0431   20.6927 C.3      40      M_A    0.0000
    282 C         166.9604  112.8017   21.3418 C.3      40      M_A    0.0000
    283 O         167.2890  111.8284   20.3506 O.3      40      M_A    0.0000
    284 H         165.3106  114.1359   21.0105 H        40      M_A    0.0000
    285 H         166.3635  113.9618   19.6006 H        40      M_A    0.0000
    286 H         166.2696  112.3909   22.0921 H        40      M_A    0.0000
    287 H         167.8850  113.0500   21.8777 H        40      M_A    0.0000
    288 C         166.6318  110.6011   20.5930 C.3      41      M_A    0.0000
    289 C         167.5592  109.4051   20.3989 C.3      41      M_A    0.0000
    290 O         167.0737  108.5594   19.3563 O.3      41      M_A    0.0000
    291 H         166.2752  110.6088   21.6294 H        41      M_A    0.0000
    292 H         165.7543  110.5308   19.9414 H        41      M_A    0.0000
    293 H         167.6689  108.8528   21.3433 H        41      M_A    0.0000
    294 H         168.5671  109.7320   20.1143 H        41      M_A    0.0000
    295 C         168.0066  107.5482   19.0340 C.3      42      M_A    0.0000
    296 C         167.4957  106.6262   17.9308 C.3      42      M_A    0.0000
    297 O         167.5349  105.2647   18.3583 O.3      42      M_A    0.0000
    298 H         168.9266  108.0354   18.6911 H        42      M_A    0.0000
    299 H         168.2490  106.9835   19.9405 H        42      M_A    0.0000
    300 H         168.0808  106.7737   17.0116 H        42      M_A    0.0000
    301 H         166.4549  106.8601   17.6744 H        42      M_A    0.0000
    302 C         167.0252  104.3964   17.3668 C.3      43      M_A    0.0000
    303 C         166.9990  102.9441   17.8340 C.3      43      M_A    0.0000
    304 O         167.9787  102.1759   17.1354 O.3      43      M_A    0.0000
    305 H         166.0017  104.7130   17.1355 H        43      M_A    0.0000
    306 H         167.6205  104.5074   16.4543 H        43      M_A    0.0000
    307 H         165.9922  102.5216   17.7037 H        43      M_A    0.0000
    308 H         167.2272  102.8719   18.9047 H        43      M_A    0.0000
    309 C         167.9347  100.8150   17.5133 C.3      44      M_A    0.0000
    310 C         168.2991  100.6148   18.9814 C.3      44      M_A    0.0000
    311 O         168.2301   99.2322   19.3301 O.3      44      M_A    0.0000
    312 H         166.9136  100.4524   17.3488 H        44      M_A    0.0000
    313 H         168.5995  100.2408   16.8592 H        44      M_A    0.0000
    314 H         167.6428  101.2218   19.6215 H        44      M_A    0.0000
    315 H         169.3234  100.9533   19.1814 H        44      M_A    0.0000
    316 C         166.9026   98.8340   19.6059 C.3      45      M_A    0.0000
    317 C         166.1689   98.3729   18.3501 C.3      45      M_A    0.0000
    318 O         165.1091   99.2742   18.0303 O.3      45      M_A    0.0000
    319 H         166.9415   98.0027   20.3192 H        45      M_A    0.0000
    320 H         166.3746   99.6620   20.0907 H        45      M_A    0.0000
    321 H         165.7951   97.3475   18.4838 H        45      M_A    0.0000
    322 H         166.8467   98.3437   17.4878 H        45      M_A    0.0000
    323 H         164.2599   98.9833   18.4236 H        45      M_A    0.0000
    324 H         259.9120  120.2407   28.6641 H         0      M_A    0.0000
@<TRIPOS>BOND
     1     1     2      1
     2     1     4      1
     3     1     5      1
     4     1   324      1
     5     2     3      1
     6     2     6      1
     7     2     7      1
     8     3     8      1
     9     8     9      1
    10     8    11      1
    11     8    12      1
    12     9    10      1
    13     9    13      1
    14     9    14      1
    15    10    15      1
    16    15    16      1
    17    15    18      1
    18    15    19      1
    19    16    17      1
    20    16    20      1
    21    16    21      1
    22    17    22      1
    23    22    23      1
    24    22    25      1
    25    22    26      1
    26    23    24      1
    27    23    27      1
    28    23    28      1
    29    24    29      1
    30    29    30      1
    31    29    32      1
    32    29    33      1
    33    30    31      1
    34    30    34      1
    35    30    35      1
    36    31    36      1
    37    36    37      1
    38    36    39      1
    39    36    40      1
    40    37    38      1
    41    37    41      1
    42    37    42      1
    43    38    43      1
    44    43    44      1
    45    43    46      1
    46    43    47      1
    47    44    45      1
    48    44    48      1
    49    44    49      1
    50    45    50      1
    51    50    51      1
    52    50    53      1
    53    50    54      1
    54    51    52      1
    55    51    55      1
    56    51    56      1
    57    52    57      1
    58    57    58      1
    59    57    60      1
    60    57    61      1
    61    58    59      1
    62    58    62      1
    63    58    63      1
    64    59    64      1
    65    64    65      1
    66    64    67      1
    67    64    68      1
    68    65    66      1
    69    65    69      1
    70    65    70      1
    71    66    71      1
    72    71    72      1
    73    71    74      1
    74    71    75      1
    75    72    73      1
    76    72    76      1
    77    72    77      1
    78    73    78      1
    79    78    79      1
    80    78    81      1
    81    78    82      1
    82    79    80      1
    83    79    83      1
    84    79    84      1
    85    80    85      1
    86    85    86      1
    87    85    88      1
    88    85    89      1
    89    86    87      1
    90    86    90      1
    91    86    91      1
    92    87    92      1
    93    92    93      1
    94    92    95      1
    95    92    96      1
    96    93    94      1
    97    93    97      1
    98    93    98      1
    99    94    99      1
   100    99   100      1
   101    99   102      1
   102    99   103      1
   103   100   101      1
   104   100   104      1
   105   100   105      1
   106   101   106      1
   107   106   107      1
   108   106   109      1
   109   106   110      1
   110   107   108      1
   111   107   111      1
   112   107   112      1
   113   108   113      1
   114   113   114      1
   115   113   116      1
   116   113   117      1
   117   114   115      1
   118   114   118      1
   119   114   119      1
   120   115   120      1
   121   120   121      1
   122   120   123      1
   123   120   124      1
   124   121   122      1
   125   121   125      1
   126   121   126      1
   127   122   127      1
   128   127   128      1
   129   127   130      1
   130   127   131      1
   131   128   129      1
   132   128   132      1
   133   128   133      1
   134   129   134      1
   135   134   135      1
   136   134   137      1
   137   134   138      1
   138   135   136      1
   139   135   139      1
   140   135   140      1
   141   136   141      1
   142   141   142      1
   143   141   144      1
   144   141   145      1
   145   142   143      1
   146   142   146      1
   147   142   147      1
   148   143   148      1
   149   148   149      1
   150   148   151      1
   151   148   152      1
   152   149   150      1
   153   149   153      1
   154   149   154      1
   155   150   155      1
   156   155   156      1
   157   155   158      1
   158   155   159      1
   159   156   157      1
   160   156   160      1
   161   156   161      1
   162   157   162      1
   163   162   163      1
   164   162   165      1
   165   162   166      1
   166   163   164      1
   167   163   167      1
   168   163   168      1
   169   164   169      1
   170   169   170      1
   171   169   172      1
   172   169   173      1
   173   170   171      1
   174   170   174      1
   175   170   175      1
   176   171   176      1
   177   176   177      1
   178   176   179      1
   179   176   180      1
   180   177   178      1
   181   177   181      1
   182   177   182      1
   183   178   183      1
   184   183   184      1
   185   183   186      1
   186   183   187      1
   187   184   185      1
   188   184   188      1
   189   184   189      1
   190   185   190      1
   191   190   191      1
   192   190   193      1
   193   190   194      1
   194   191   192      1
   195   191   195      1
   196   191   196      1
   197   192   197      1
   198   197   198      1
   199   197   200      1
   200   197   201      1
   201   198   199      1
   202   198   202      1
   203   198   203      1
   204   199   204      1
   205   204   205      1
   206   204   207      1
   207   204   208      1
   208   205   206      1
   209   205   209      1
   210   205   210      1
   211   206   211      1
   212   211   212      1
   213   211   214      1
   214   211   215      1
   215   212   213      1
   216   212   216      1
   217   212   217      1
   218   213   218      1
   219   218   219      1
   220   218   221      1
   221   218   222      1
   222   219   220      1
   223   219   223      1
   224   219   224      1
   225   220   225      1
   226   225   226      1
   227   225   228      1
   228   225   229      1
   229   226   227      1
   230   226   230      1
   231   226   231      1
   232   227   232      1
   233   232   233      1
   234   232   235      1
   235   232   236      1
   236   233   234      1
   237   233   237      1
   238   233   238      1
   239   234   239      1
   240   239   240      1
   241   239   242      1
   242   239   243      1
   243   240   241      1
   244   240   244      1
   245   240   245      1
   246   241   246      1
   247   246   247      1
   248   246   249      1
   249   246   250      1
   250   247   248      1
   251   247   251      1
   252   247   252      1
   253   248   253      1
   254   253   254      1
   255   253   256      1
   256   253   257      1
   257   254   255      1
   258   254   258      1
   259   254   259      1
   260   255   260      1
   261   260   261      1
   262   260   263      1
   263   260   264      1
   264   261   262      1
   265   261   265      1
   266   261   266      1
   267   262   267      1
   268   267   268      1
   269   267   270      1
   270   267   271      1
   271   268   269      1
   272   268   272      1
   273   268   273      1
   274   269   274      1
   275   274   275      1
   276   274   277      1
   277   274   278      1
   278   275   276      1
   279   275   279      1
   280   275   280      1
   281   276   281      1
   282   281   282      1
   283   281   284      1
   284   281   285      1
   285   282   283      1
   286   282   286      1
   287   282   287      1
   288   283   288      1
   289   288   289      1
   290   288   291      1
   291   288   292      1
   292   289   290      1
   293   289   293      1
   294   289   294      1
   295   290   295      1
   296   295   296      1
   297   295   298      1
   298   295   299      1
   299   296   297      1
   300   296   300      1
   301   296   301      1
   302   297   302      1
   303   302   303      1
   304   302   305      1
   305   302   306      1
   306   303   304      1
   307   303   307      1
   308   303   308      1
   309   304   309      1
   310   309   310      1
   311   309   312      1
   312   309   313      1
   313   310   311      1
   314   310   314      1
   315   310   315      1
   316   311   316      1
   317   316   317      1
   318   316   319      1
   319   316   320      1
   320   317   318      1
   321   317   321      1
   322   317   322      1
   323   318   323      1
