###
### Created by PolyChef-cpp17 on Mon May 12 10:39:11 2025
###

@<TRIPOS>MOLECULE
NO_INFO
415 414 1 0 0
SMALL
USER_CHARGES


@<TRIPOS>ATOM
      1 C          60.6376   64.5837   72.1394 C.3       0      M_A    0.0000
      2 C          61.7629   63.5774   72.3453 C.3       0      M_A    0.0000
      3 O          61.3128   62.5654   73.2448 O.3       0      M_A    0.0000
      4 H          59.8689   64.1353   71.4999 H         0      M_A    0.0000
      5 H          60.1701   64.8284   73.1000 H         0      M_A    0.0000
      6 H          62.6645   64.0614   72.7441 H         0      M_A    0.0000
      7 H          62.0037   63.1321   71.3698 H         0      M_A    0.0000
      8 C          59.9371   62.3089   73.0599 C.3       1      M_A    0.0000
      9 C          59.6666   60.9065   72.5294 C.3       1      M_A    0.0000
     10 O          58.3454   60.5215   72.9065 O.3       1      M_A    0.0000
     11 H          59.5439   63.0431   72.3477 H         1      M_A    0.0000
     12 H          59.4170   62.4583   74.0130 H         1      M_A    0.0000
     13 H          60.3951   60.1835   72.9199 H         1      M_A    0.0000
     14 H          59.7505   60.9352   71.4339 H         1      M_A    0.0000
     15 C          57.8235   59.5738   71.9999 C.3       2      M_A    0.0000
     16 C          57.4107   58.2746   72.6804 C.3       2      M_A    0.0000
     17 O          56.0838   57.9456   72.2720 O.3       2      M_A    0.0000
     18 H          58.5926   59.3565   71.2501 H         2      M_A    0.0000
     19 H          56.9664   60.0155   71.4790 H         2      M_A    0.0000
     20 H          57.4566   58.3635   73.7741 H         2      M_A    0.0000
     21 H          58.1076   57.4870   72.3610 H         2      M_A    0.0000
     22 C          55.8378   56.5656   72.4382 C.3       3      M_A    0.0000
     23 C          55.2248   56.2367   73.7937 C.3       3      M_A    0.0000
     24 O          53.9010   55.7448   73.5901 O.3       3      M_A    0.0000
     25 H          56.7901   56.0328   72.3373 H         3      M_A    0.0000
     26 H          55.1780   56.2231   71.6329 H         3      M_A    0.0000
     27 H          55.2019   57.1191   74.4472 H         3      M_A    0.0000
     28 H          55.8439   55.4624   74.2682 H         3      M_A    0.0000
     29 C          53.4684   54.9981   74.7072 C.3       4      M_A    0.0000
     30 C          53.7252   55.7135   76.0277 C.3       4      M_A    0.0000
     31 O          53.6478   54.7606   77.0869 O.3       4      M_A    0.0000
     32 H          54.0032   54.0416   74.7084 H         4      M_A    0.0000
     33 H          52.3997   54.7817   74.5971 H         4      M_A    0.0000
     34 H          52.9988   56.5203   76.1935 H         4      M_A    0.0000
     35 H          54.7334   56.1492   75.9880 H         4      M_A    0.0000
     36 C          54.4959   55.1295   78.1533 C.3       5      M_A    0.0000
     37 C          54.4169   56.6155   78.4803 C.3       5      M_A    0.0000
     38 O          55.3520   56.9059   79.5182 O.3       5      M_A    0.0000
     39 H          55.5257   54.8784   77.8752 H         5      M_A    0.0000
     40 H          54.2352   54.5347   79.0361 H         5      M_A    0.0000
     41 H          53.4046   56.9028   78.7947 H         5      M_A    0.0000
     42 H          54.6774   57.1778   77.5727 H         5      M_A    0.0000
     43 C          56.5805   56.2525   79.2808 C.3       6      M_A    0.0000
     44 C          57.7291   56.8502   80.0838 C.3       6      M_A    0.0000
     45 O          58.8228   55.9340   80.0696 O.3       6      M_A    0.0000
     46 H          56.8109   56.3329   78.2124 H         6      M_A    0.0000
     47 H          56.4682   55.1885   79.5179 H         6      M_A    0.0000
     48 H          57.4272   57.0597   81.1188 H         6      M_A    0.0000
     49 H          58.0243   57.7942   79.6045 H         6      M_A    0.0000
     50 C          59.3656   55.7842   81.3640 C.3       7      M_A    0.0000
     51 C          60.6341   54.9403   81.3755 C.3       7      M_A    0.0000
     52 O          61.6657   55.6737   82.0342 O.3       7      M_A    0.0000
     53 H          58.6115   55.3056   81.9989 H         7      M_A    0.0000
     54 H          59.5695   56.7772   81.7805 H         7      M_A    0.0000
     55 H          60.9501   54.6790   80.3567 H         7      M_A    0.0000
     56 H          60.4214   54.0140   81.9274 H         7      M_A    0.0000
     57 C          62.8964   54.9872   81.9529 C.3       8      M_A    0.0000
     58 C          63.4335   54.9097   80.5292 C.3       8      M_A    0.0000
     59 O          64.7896   54.4685   80.5751 O.3       8      M_A    0.0000
     60 H          62.7482   53.9709   82.3354 H         8      M_A    0.0000
     61 H          63.6241   55.4849   82.6039 H         8      M_A    0.0000
     62 H          63.3714   55.8832   80.0246 H         8      M_A    0.0000
     63 H          62.8218   54.1849   79.9739 H         8      M_A    0.0000
     64 C          65.1507   53.8379   79.3649 C.3       9      M_A    0.0000
     65 C          66.6492   53.5831   79.2591 C.3       9      M_A    0.0000
     66 O          66.8827   52.1790   79.3584 O.3       9      M_A    0.0000
     67 H          64.8378   54.4823   78.5356 H         9      M_A    0.0000
     68 H          64.6007   52.8939   79.2786 H         9      M_A    0.0000
     69 H          67.2018   54.1131   80.0465 H         9      M_A    0.0000
     70 H          66.9886   53.9515   78.2809 H         9      M_A    0.0000
     71 C          66.7426   51.7427   80.6936 C.3      10      M_A    0.0000
     72 C          67.5925   50.5168   81.0037 C.3      10      M_A    0.0000
     73 O          68.9021   50.9488   81.3702 O.3      10      M_A    0.0000
     74 H          65.6880   51.5001   80.8663 H        10      M_A    0.0000
     75 H          67.0090   52.5662   81.3659 H        10      M_A    0.0000
     76 H          67.6475   49.8394   80.1411 H        10      M_A    0.0000
     77 H          67.1253   49.9824   81.8428 H        10      M_A    0.0000
     78 C          69.8026   50.7795   80.2964 C.3      11      M_A    0.0000
     79 C          70.8666   49.7270   80.5818 C.3      11      M_A    0.0000
     80 O          71.4958   49.3674   79.3527 O.3      11      M_A    0.0000
     81 H          70.2924   51.7409   80.1047 H        11      M_A    0.0000
     82 H          69.2365   50.5094   79.3977 H        11      M_A    0.0000
     83 H          70.4320   48.8371   81.0565 H        11      M_A    0.0000
     84 H          71.6051   50.1669   81.2666 H        11      M_A    0.0000
     85 C          72.6889   48.6523   79.5930 C.3      12      M_A    0.0000
     86 C          73.6743   48.7467   78.4348 C.3      12      M_A    0.0000
     87 O          74.9586   49.0892   78.9535 O.3      12      M_A    0.0000
     88 H          72.4308   47.6002   79.7585 H        12      M_A    0.0000
     89 H          73.1502   49.0303   80.5124 H        12      M_A    0.0000
     90 H          73.3546   49.4952   77.6974 H        12      M_A    0.0000
     91 H          73.7177   47.7642   77.9441 H        12      M_A    0.0000
     92 C          75.5211   48.0000   79.6535 C.3      13      M_A    0.0000
     93 C          76.7587   47.4359   78.9667 C.3      13      M_A    0.0000
     94 O          77.8947   48.1975   79.3733 O.3      13      M_A    0.0000
     95 H          74.7630   47.2122   79.7286 H        13      M_A    0.0000
     96 H          75.7685   48.3219   80.6714 H        13      M_A    0.0000
     97 H          76.6579   47.4648   77.8735 H        13      M_A    0.0000
     98 H          76.8759   46.3898   79.2827 H        13      M_A    0.0000
     99 C          78.7138   48.5029   78.2649 C.3      14      M_A    0.0000
    100 C          78.4991   49.9201   77.7481 C.3      14      M_A    0.0000
    101 O          79.5778   50.2578   76.8773 O.3      14      M_A    0.0000
    102 H          78.4857   47.7912   77.4634 H        14      M_A    0.0000
    103 H          79.7627   48.3598   78.5485 H        14      M_A    0.0000
    104 H          78.4414   50.6425   78.5732 H        14      M_A    0.0000
    105 H          77.5498   49.9401   77.1945 H        14      M_A    0.0000
    106 C          80.6067   49.2949   76.9600 C.3      15      M_A    0.0000
    107 C          81.7498   49.5714   75.9914 C.3      15      M_A    0.0000
    108 O          82.9203   49.8881   76.7435 O.3      15      M_A    0.0000
    109 H          80.1761   48.3127   76.7345 H        15      M_A    0.0000
    110 H          80.9830   49.2651   77.9888 H        15      M_A    0.0000
    111 H          81.5059   50.3971   75.3097 H        15      M_A    0.0000
    112 H          81.9201   48.6623   75.3977 H        15      M_A    0.0000
    113 C          83.9275   50.4103   75.9036 C.3      16      M_A    0.0000
    114 C          84.8101   51.4322   76.6093 C.3      16      M_A    0.0000
    115 O          86.1723   51.1668   76.2779 O.3      16      M_A    0.0000
    116 H          83.4438   50.8879   75.0440 H        16      M_A    0.0000
    117 H          84.5379   49.5827   75.5246 H        16      M_A    0.0000
    118 H          84.6735   51.3947   77.6984 H        16      M_A    0.0000
    119 H          84.5251   52.4319   76.2523 H        16      M_A    0.0000
    120 C          87.0250   51.5297   77.3427 C.3      17      M_A    0.0000
    121 C          88.0516   50.4516   77.6674 C.3      17      M_A    0.0000
    122 O          88.7314   50.8139   78.8684 O.3      17      M_A    0.0000
    123 H          86.4076   51.7145   78.2290 H        17      M_A    0.0000
    124 H          87.5311   52.4679   77.0883 H        17      M_A    0.0000
    125 H          88.7736   50.3272   76.8492 H        17      M_A    0.0000
    126 H          87.5150   49.5033   77.8115 H        17      M_A    0.0000
    127 C          89.0389   49.6680   79.6332 C.3      18      M_A    0.0000
    128 C          90.5136   49.5900   80.0085 C.3      18      M_A    0.0000
    129 O          90.6530   49.9257   81.3882 O.3      18      M_A    0.0000
    130 H          88.7716   48.7820   79.0463 H        18      M_A    0.0000
    131 H          88.4193   49.6677   80.5371 H        18      M_A    0.0000
    132 H          91.1195   50.2685   79.3931 H        18      M_A    0.0000
    133 H          90.8541   48.5592   79.8369 H        18      M_A    0.0000
    134 C          92.0060   50.1687   81.7088 C.3      19      M_A    0.0000
    135 C          92.6586   51.1810   80.7756 C.3      19      M_A    0.0000
    136 O          93.9486   51.5109   81.2885 O.3      19      M_A    0.0000
    137 H          92.5498   49.2195   81.6438 H        19      M_A    0.0000
    138 H          92.0680   50.5173   82.7460 H        19      M_A    0.0000
    139 H          92.0482   52.0889   80.6803 H        19      M_A    0.0000
    140 H          92.7567   50.7161   79.7845 H        19      M_A    0.0000
    141 C          94.4561   52.6672   80.6576 C.3      20      M_A    0.0000
    142 C          95.6369   53.2743   81.4049 C.3      20      M_A    0.0000
    143 O          96.8222   52.5705   81.0365 O.3      20      M_A    0.0000
    144 H          93.6504   53.4077   80.5994 H        20      M_A    0.0000
    145 H          94.7489   52.4128   79.6327 H        20      M_A    0.0000
    146 H          95.4915   53.2231   82.4922 H        20      M_A    0.0000
    147 H          95.7202   54.3296   81.1094 H        20      M_A    0.0000
    148 C          97.8374   52.7646   81.9980 C.3      21      M_A    0.0000
    149 C          99.2364   52.6874   81.3995 C.3      21      M_A    0.0000
    150 O         100.1475   53.3438   82.2798 O.3      21      M_A    0.0000
    151 H          97.7339   51.9909   82.7671 H        21      M_A    0.0000
    152 H          97.6872   53.7366   82.4814 H        21      M_A    0.0000
    153 H          99.2726   53.1526   80.4053 H        21      M_A    0.0000
    154 H          99.5068   51.6266   81.3026 H        21      M_A    0.0000
    155 C         101.4661   52.8885   82.0638 C.3      22      M_A    0.0000
    156 C         102.5133   53.9495   82.3788 C.3      22      M_A    0.0000
    157 O         103.6486   53.3125   82.9631 O.3      22      M_A    0.0000
    158 H         101.5596   52.5944   81.0123 H        22      M_A    0.0000
    159 H         101.6380   51.9957   82.6757 H        22      M_A    0.0000
    160 H         102.1170   54.7125   83.0620 H        22      M_A    0.0000
    161 H         102.7999   54.4352   81.4355 H        22      M_A    0.0000
    162 C         104.2879   54.1745   83.8801 C.3      23      M_A    0.0000
    163 C         105.5124   53.5401   84.5277 C.3      23      M_A    0.0000
    164 O         106.1390   54.5083   85.3679 O.3      23      M_A    0.0000
    165 H         103.5668   54.4399   84.6614 H        23      M_A    0.0000
    166 H         104.5712   55.0975   83.3614 H        23      M_A    0.0000
    167 H         106.2239   53.1810   83.7721 H        23      M_A    0.0000
    168 H         105.1744   52.6844   85.1289 H        23      M_A    0.0000
    169 C         106.5102   55.6493   84.6243 C.3      24      M_A    0.0000
    170 C         106.8054   56.8557   85.5068 C.3      24      M_A    0.0000
    171 O         108.0491   57.4257   85.1016 O.3      24      M_A    0.0000
    172 H         105.6886   55.8968   83.9427 H        24      M_A    0.0000
    173 H         107.3870   55.4052   84.0137 H        24      M_A    0.0000
    174 H         106.8482   56.5746   86.5676 H        24      M_A    0.0000
    175 H         105.9953   57.5853   85.3676 H        24      M_A    0.0000
    176 C         108.6252   58.1677   86.1553 C.3      25      M_A    0.0000
    177 C         110.1139   58.4197   85.9514 C.3      25      M_A    0.0000
    178 O         110.3396   59.8282   85.9209 O.3      25      M_A    0.0000
    179 H         108.4810   57.6091   87.0870 H        25      M_A    0.0000
    180 H         108.0913   59.1199   86.2522 H        25      M_A    0.0000
    181 H         110.4737   57.9608   85.0208 H        25      M_A    0.0000
    182 H         110.6538   57.9716   86.7974 H        25      M_A    0.0000
    183 C         111.3124   60.1573   84.9524 C.3      26      M_A    0.0000
    184 C         112.6836   60.4205   85.5623 C.3      26      M_A    0.0000
    185 O         113.6453   59.6044   84.8953 O.3      26      M_A    0.0000
    186 H         110.9781   61.0560   84.4219 H        26      M_A    0.0000
    187 H         111.3749   59.3433   84.2213 H        26      M_A    0.0000
    188 H         112.6903   60.2060   86.6393 H        26      M_A    0.0000
    189 H         112.9243   61.4824   85.4125 H        26      M_A    0.0000
    190 C         114.9106   59.7197   85.5105 C.3      27      M_A    0.0000
    191 C         115.9698   60.2883   84.5744 C.3      27      M_A    0.0000
    192 O         117.1289   60.6148   85.3397 O.3      27      M_A    0.0000
    193 H         115.2233   58.7228   85.8413 H        27      M_A    0.0000
    194 H         114.8161   60.3514   86.4010 H        27      M_A    0.0000
    195 H         115.6024   61.1799   84.0490 H        27      M_A    0.0000
    196 H         116.2161   59.5172   83.8310 H        27      M_A    0.0000
    197 C         116.8040   61.5113   86.3805 C.3      28      M_A    0.0000
    198 C         118.0297   61.9890   87.1491 C.3      28      M_A    0.0000
    199 O         117.8385   63.3556   87.5117 O.3      28      M_A    0.0000
    200 H         116.1239   61.0016   87.0724 H        28      M_A    0.0000
    201 H         116.2672   62.3677   85.9568 H        28      M_A    0.0000
    202 H         118.9441   61.8830   86.5500 H        28      M_A    0.0000
    203 H         118.1266   61.3711   88.0529 H        28      M_A    0.0000
    204 C         118.7699   63.7456   88.4982 C.3      29      M_A    0.0000
    205 C         120.1962   63.3335   88.1557 C.3      29      M_A    0.0000
    206 O         121.0186   64.4994   88.1423 O.3      29      M_A    0.0000
    207 H         118.4805   63.2791   89.4467 H        29      M_A    0.0000
    208 H         118.7127   64.8320   88.6307 H        29      M_A    0.0000
    209 H         120.2438   62.8282   87.1818 H        29      M_A    0.0000
    210 H         120.5448   62.6375   88.9317 H        29      M_A    0.0000
    211 C         122.3853   64.1467   88.1580 C.3      30      M_A    0.0000
    212 C         123.2558   65.1326   87.3889 C.3      30      M_A    0.0000
    213 O         123.9682   65.9406   88.3245 O.3      30      M_A    0.0000
    214 H         122.4881   63.1523   87.7089 H        30      M_A    0.0000
    215 H         122.7223   64.0782   89.1986 H        30      M_A    0.0000
    216 H         122.6521   65.7674   86.7266 H        30      M_A    0.0000
    217 H         123.9631   64.5559   86.7764 H        30      M_A    0.0000
    218 C         124.0414   67.2771   87.8761 C.3      31      M_A    0.0000
    219 C         125.2718   68.0066   88.4008 C.3      31      M_A    0.0000
    220 O         125.9148   68.6629   87.3091 O.3      31      M_A    0.0000
    221 H         123.1418   67.8026   88.2158 H        31      M_A    0.0000
    222 H         124.0374   67.2845   86.7802 H        31      M_A    0.0000
    223 H         125.9709   67.3134   88.8875 H        31      M_A    0.0000
    224 H         124.9381   68.7481   89.1403 H        31      M_A    0.0000
    225 C         127.2790   68.8867   87.5945 C.3      32      M_A    0.0000
    226 C         128.0480   69.4328   86.3979 C.3      32      M_A    0.0000
    227 O         129.0794   70.2971   86.8725 O.3      32      M_A    0.0000
    228 H         127.7256   67.9346   87.9028 H        32      M_A    0.0000
    229 H         127.3558   69.5796   88.4401 H        32      M_A    0.0000
    230 H         127.3862   69.9782   85.7119 H        32      M_A    0.0000
    231 H         128.4895   68.5820   85.8602 H        32      M_A    0.0000
    232 C         129.5590   71.1209   85.8314 C.3      33      M_A    0.0000
    233 C         130.6074   72.1189   86.3071 C.3      33      M_A    0.0000
    234 O         131.3722   72.5501   85.1823 O.3      33      M_A    0.0000
    235 H         128.7094   71.6685   85.4083 H        33      M_A    0.0000
    236 H         129.9739   70.4868   85.0396 H        33      M_A    0.0000
    237 H         131.2683   71.6751   87.0636 H        33      M_A    0.0000
    238 H         130.0835   72.9751   86.7549 H        33      M_A    0.0000
    239 C         132.5757   73.1581   85.6003 C.3      34      M_A    0.0000
    240 C         133.6131   72.1462   86.0705 C.3      34      M_A    0.0000
    241 O         134.7495   72.8525   86.5661 O.3      34      M_A    0.0000
    242 H         132.3457   73.8438   86.4236 H        34      M_A    0.0000
    243 H         132.9780   73.7542   84.7733 H        34      M_A    0.0000
    244 H         133.9140   71.4737   85.2560 H        34      M_A    0.0000
    245 H         133.1637   71.5471   86.8749 H        34      M_A    0.0000
    246 C         135.8717   72.0000   86.6458 C.3      35      M_A    0.0000
    247 C         137.1579   72.7498   86.9696 C.3      35      M_A    0.0000
    248 O         137.2900   72.8406   88.3874 O.3      35      M_A    0.0000
    249 H         135.9863   71.4927   85.6812 H        35      M_A    0.0000
    250 H         135.6813   71.2326   87.4047 H        35      M_A    0.0000
    251 H         137.1575   73.7547   86.5266 H        35      M_A    0.0000
    252 H         137.9988   72.1797   86.5502 H        35      M_A    0.0000
    253 C         138.0147   73.9970   88.7483 C.3      36      M_A    0.0000
    254 C         137.4967   75.2539   88.0604 C.3      36      M_A    0.0000
    255 O         138.1906   76.3834   88.5882 O.3      36      M_A    0.0000
    256 H         139.0641   73.8443   88.4720 H        36      M_A    0.0000
    257 H         137.9713   74.1177   89.8367 H        36      M_A    0.0000
    258 H         136.4151   75.3741   88.2081 H        36      M_A    0.0000
    259 H         137.6975   75.1598   86.9839 H        36      M_A    0.0000
    260 C         138.0015   77.5149   87.7657 C.3      37      M_A    0.0000
    261 C         139.1565   78.5047   87.8527 C.3      37      M_A    0.0000
    262 O         139.7097   78.6781   86.5490 O.3      37      M_A    0.0000
    263 H         137.0773   78.0148   88.0772 H        37      M_A    0.0000
    264 H         137.8671   77.1824   86.7301 H        37      M_A    0.0000
    265 H         139.9320   78.1546   88.5470 H        37      M_A    0.0000
    266 H         138.7583   79.4605   88.2214 H        37      M_A    0.0000
    267 C         140.8830   79.4611   86.6045 C.3      38      M_A    0.0000
    268 C         141.4104   79.8286   85.2232 C.3      38      M_A    0.0000
    269 O         141.7667   81.2102   85.2221 O.3      38      M_A    0.0000
    270 H         141.6504   78.8915   87.1408 H        38      M_A    0.0000
    271 H         140.6770   80.3687   87.1833 H        38      M_A    0.0000
    272 H         140.6620   79.6324   84.4438 H        38      M_A    0.0000
    273 H         142.2981   79.2122   85.0230 H        38      M_A    0.0000
    274 C         141.7212   81.7366   83.9131 C.3      39      M_A    0.0000
    275 C         141.6632   83.2590   83.8934 C.3      39      M_A    0.0000
    276 O         142.3621   83.7286   82.7415 O.3      39      M_A    0.0000
    277 H         140.8308   81.3380   83.4139 H        39      M_A    0.0000
    278 H         142.5988   81.3854   83.3586 H        39      M_A    0.0000
    279 H         142.1052   83.6881   84.8026 H        39      M_A    0.0000
    280 H         140.6071   83.5585   83.8393 H        39      M_A    0.0000
    281 C         142.4432   85.1379   82.7467 C.3      40      M_A    0.0000
    282 C         141.7386   85.7717   81.5538 C.3      40      M_A    0.0000
    283 O         141.1015   86.9736   81.9844 O.3      40      M_A    0.0000
    284 H         143.5019   85.4206   82.7288 H        40      M_A    0.0000
    285 H         142.0140   85.5146   83.6821 H        40      M_A    0.0000
    286 H         140.9976   85.0886   81.1175 H        40      M_A    0.0000
    287 H         142.4977   86.0014   80.7930 H        40      M_A    0.0000
    288 C         141.5717   87.3593   83.2583 C.3      41      M_A    0.0000
    289 C         140.9972   88.6936   83.7178 C.3      41      M_A    0.0000
    290 O         140.6126   88.5788   85.0871 O.3      41      M_A    0.0000
    291 H         142.6638   87.4368   83.2118 H        41      M_A    0.0000
    292 H         141.3244   86.5733   83.9809 H        41      M_A    0.0000
    293 H         140.1330   88.9886   83.1077 H        41      M_A    0.0000
    294 H         141.7812   89.4563   83.6111 H        41      M_A    0.0000
    295 C         139.4910   89.3912   85.3604 C.3      42      M_A    0.0000
    296 C         139.8465   90.6307   86.1719 C.3      42      M_A    0.0000
    297 O         139.4488   91.7878   85.4379 O.3      42      M_A    0.0000
    298 H         138.7628   88.7935   85.9204 H        42      M_A    0.0000
    299 H         139.0240   89.6821   84.4126 H        42      M_A    0.0000
    300 H         140.9227   90.6731   86.3869 H        42      M_A    0.0000
    301 H         139.2983   90.5832   87.1233 H        42      M_A    0.0000
    302 C         140.0001   92.9552   86.0087 C.3      43      M_A    0.0000
    303 C         139.5559   94.2253   85.2939 C.3      43      M_A    0.0000
    304 O         138.7312   94.9832   86.1778 O.3      43      M_A    0.0000
    305 H         141.0921   92.8791   85.9579 H        43      M_A    0.0000
    306 H         139.7185   92.9999   87.0669 H        43      M_A    0.0000
    307 H         139.0061   93.9941   84.3718 H        43      M_A    0.0000
    308 H         140.4551   94.8012   85.0335 H        43      M_A    0.0000
    309 C         137.7265   95.6672   85.4600 C.3      44      M_A    0.0000
    310 C         137.5031   97.0860   85.9685 C.3      44      M_A    0.0000
    311 O         137.1408   97.9156   84.8656 O.3      44      M_A    0.0000
    312 H         136.7924   95.1020   85.5541 H        44      M_A    0.0000
    313 H         137.9987   95.6856   84.3985 H        44      M_A    0.0000
    314 H         138.4030   97.4821   86.4576 H        44      M_A    0.0000
    315 H         136.6854   97.0595   86.7024 H        44      M_A    0.0000
    316 C         137.4974   99.2589   85.1129 C.3      45      M_A    0.0000
    317 C         136.9737  100.2121   84.0459 C.3      45      M_A    0.0000
    318 O         137.3721  101.5400   84.3833 O.3      45      M_A    0.0000
    319 H         138.5909   99.3232   85.1448 H        45      M_A    0.0000
    320 H         137.1180   99.5512   86.0987 H        45      M_A    0.0000
    321 H         135.8801  100.1572   83.9622 H        45      M_A    0.0000
    322 H         137.4163   99.9210   83.0829 H        45      M_A    0.0000
    323 C         137.2132  102.4048   83.2790 C.3      46      M_A    0.0000
    324 C         137.9928  103.7047   83.4333 C.3      46      M_A    0.0000
    325 O         139.2192  103.5910   82.7129 O.3      46      M_A    0.0000
    326 H         136.1471  102.6369   83.1757 H        46      M_A    0.0000
    327 H         137.5293  101.8812   82.3696 H        46      M_A    0.0000
    328 H         138.1961  103.9265   84.4895 H        46      M_A    0.0000
    329 H         137.3848  104.5180   83.0127 H        46      M_A    0.0000
    330 C         140.0865  104.6580   83.0319 C.3      47      M_A    0.0000
    331 C         140.6474  105.3496   81.7956 C.3      47      M_A    0.0000
    332 O         141.0552  106.6689   82.1547 O.3      47      M_A    0.0000
    333 H         140.9164  104.2594   83.6265 H        47      M_A    0.0000
    334 H         139.5469  105.3798   83.6556 H        47      M_A    0.0000
    335 H         139.9034  105.3922   80.9888 H        47      M_A    0.0000
    336 H         141.5141  104.7711   81.4460 H        47      M_A    0.0000
    337 C         140.8626  107.5615   81.0782 C.3      48      M_A    0.0000
    338 C         140.9488  109.0221   81.5031 C.3      48      M_A    0.0000
    339 O         141.2655  109.8135   80.3589 O.3      48      M_A    0.0000
    340 H         139.8727  107.3716   80.6481 H        48      M_A    0.0000
    341 H         141.6083  107.3495   80.3035 H        48      M_A    0.0000
    342 H         141.7080  109.1678   82.2832 H        48      M_A    0.0000
    343 H         139.9693  109.3180   81.9044 H        48      M_A    0.0000
    344 C         141.2068  111.1889   80.6712 C.3      49      M_A    0.0000
    345 C         141.7245  112.0709   79.5418 C.3      49      M_A    0.0000
    346 O         140.7421  113.0634   79.2493 O.3      49      M_A    0.0000
    347 H         141.8123  111.3632   81.5678 H        49      M_A    0.0000
    348 H         140.1711  111.4542   80.9123 H        49      M_A    0.0000
    349 H         141.9430  111.4811   78.6416 H        49      M_A    0.0000
    350 H         142.6525  112.5507   79.8831 H        49      M_A    0.0000
    351 C         141.0177  113.6903   78.0149 C.3      50      M_A    0.0000
    352 C         140.1438  114.9139   77.7690 C.3      50      M_A    0.0000
    353 O         140.8651  115.8344   76.9514 O.3      50      M_A    0.0000
    354 H         140.8467  112.9616   77.2145 H        50      M_A    0.0000
    355 H         142.0766  113.9715   77.9882 H        50      M_A    0.0000
    356 H         139.8548  115.3954   78.7127 H        50      M_A    0.0000
    357 H         139.2341  114.5832   77.2485 H        50      M_A    0.0000
    358 C         139.9812  116.5920   76.1531 C.3      51      M_A    0.0000
    359 C         140.7089  117.4955   75.1653 C.3      51      M_A    0.0000
    360 O         139.9267  117.5972   73.9763 O.3      51      M_A    0.0000
    361 H         139.3643  117.2096   76.8156 H        51      M_A    0.0000
    362 H         139.3127  115.9087   75.6172 H        51      M_A    0.0000
    363 H         141.7073  117.1052   74.9266 H        51      M_A    0.0000
    364 H         140.8188  118.4863   75.6279 H        51      M_A    0.0000
    365 C         140.1403  118.8405   73.3429 C.3      52      M_A    0.0000
    366 C         140.6362  118.6926   71.9098 C.3      52      M_A    0.0000
    367 O         139.5995  119.1083   71.0218 O.3      52      M_A    0.0000
    368 H         140.8842  119.3978   73.9233 H        52      M_A    0.0000
    369 H         139.2063  119.4135   73.3615 H        52      M_A    0.0000
    370 H         140.9254  117.6559   71.6914 H        52      M_A    0.0000
    371 H         141.5170  119.3382   71.7863 H        52      M_A    0.0000
    372 C         139.8185  118.5970   69.7244 C.3      53      M_A    0.0000
    373 C         138.5423  118.5330   68.8945 C.3      53      M_A    0.0000
    374 O         138.8665  118.8161   67.5342 O.3      53      M_A    0.0000
    375 H         140.2348  117.5878   69.8192 H        53      M_A    0.0000
    376 H         140.5660  119.2192   69.2192 H        53      M_A    0.0000
    377 H         137.7918  119.2472   69.2589 H        53      M_A    0.0000
    378 H         138.1324  117.5168   68.9788 H        53      M_A    0.0000
    379 C         139.0193  120.2054   67.3359 C.3      54      M_A    0.0000
    380 C         139.7003  120.5393   66.0145 C.3      54      M_A    0.0000
    381 O         138.7905  121.2842   65.2063 O.3      54      M_A    0.0000
    382 H         139.6211  120.6053   68.1599 H        54      M_A    0.0000
    383 H         138.0331  120.6812   67.3827 H        54      M_A    0.0000
    384 H         140.0155  119.6298   65.4857 H        54      M_A    0.0000
    385 H         140.5901  121.1459   66.2342 H        54      M_A    0.0000
    386 C         138.8255  120.8328   63.8693 C.3      55      M_A    0.0000
    387 C         139.7303  121.6824   62.9854 C.3      55      M_A    0.0000
    388 O         140.7199  120.8386   62.3985 O.3      55      M_A    0.0000
    389 H         137.8053  120.8624   63.4704 H        55      M_A    0.0000
    390 H         139.1579  119.7886   63.8558 H        55      M_A    0.0000
    391 H         140.2125  122.4844   63.5602 H        55      M_A    0.0000
    392 H         139.1098  122.1356   62.1996 H        55      M_A    0.0000
    393 C         141.7245  121.6078   61.7726 C.3      56      M_A    0.0000
    394 C         142.5817  122.3781   62.7693 C.3      56      M_A    0.0000
    395 O         143.7512  122.8475   62.1001 O.3      56      M_A    0.0000
    396 H         141.2396  122.3181   61.0935 H        56      M_A    0.0000
    397 H         142.3535  120.9452   61.1674 H        56      M_A    0.0000
    398 H         142.8642  121.7492   63.6241 H        56      M_A    0.0000
    399 H         141.9928  123.2300   63.1374 H        56      M_A    0.0000
    400 C         143.5505  122.8740   60.7031 C.3      57      M_A    0.0000
    401 C         144.6515  123.6254   59.9651 C.3      57      M_A    0.0000
    402 O         144.0652  124.7160   59.2562 O.3      57      M_A    0.0000
    403 H         142.5892  123.3609   60.5038 H        57      M_A    0.0000
    404 H         143.4845  121.8440   60.3345 H        57      M_A    0.0000
    405 H         145.1867  122.9674   59.2675 H        57      M_A    0.0000
    406 H         145.3646  124.0031   60.7113 H        57      M_A    0.0000
    407 C         142.6829  124.5023   59.0656 C.3      58      M_A    0.0000
    408 C         141.9486  124.2071   60.3675 C.3      58      M_A    0.0000
    409 O         140.5967  124.6450   60.2398 O.3      58      M_A    0.0000
    410 H         142.5579  123.6535   58.3838 H        58      M_A    0.0000
    411 H         142.2508  125.3850   58.5807 H        58      M_A    0.0000
    412 H         142.4275  124.7081   61.2195 H        58      M_A    0.0000
    413 H         141.9769  123.1213   60.5354 H        58      M_A    0.0000
    414 H         140.0473  124.2915   60.9703 H        58      M_A    0.0000
    415 H          60.9786   65.5054   71.6678 H         0      M_A    0.0000
@<TRIPOS>BOND
     1     1     2      1
     2     1     4      1
     3     1     5      1
     4     1   415      1
     5     2     3      1
     6     2     6      1
     7     2     7      1
     8     3     8      1
     9     8     9      1
    10     8    11      1
    11     8    12      1
    12     9    10      1
    13     9    13      1
    14     9    14      1
    15    10    15      1
    16    15    16      1
    17    15    18      1
    18    15    19      1
    19    16    17      1
    20    16    20      1
    21    16    21      1
    22    17    22      1
    23    22    23      1
    24    22    25      1
    25    22    26      1
    26    23    24      1
    27    23    27      1
    28    23    28      1
    29    24    29      1
    30    29    30      1
    31    29    32      1
    32    29    33      1
    33    30    31      1
    34    30    34      1
    35    30    35      1
    36    31    36      1
    37    36    37      1
    38    36    39      1
    39    36    40      1
    40    37    38      1
    41    37    41      1
    42    37    42      1
    43    38    43      1
    44    43    44      1
    45    43    46      1
    46    43    47      1
    47    44    45      1
    48    44    48      1
    49    44    49      1
    50    45    50      1
    51    50    51      1
    52    50    53      1
    53    50    54      1
    54    51    52      1
    55    51    55      1
    56    51    56      1
    57    52    57      1
    58    57    58      1
    59    57    60      1
    60    57    61      1
    61    58    59      1
    62    58    62      1
    63    58    63      1
    64    59    64      1
    65    64    65      1
    66    64    67      1
    67    64    68      1
    68    65    66      1
    69    65    69      1
    70    65    70      1
    71    66    71      1
    72    71    72      1
    73    71    74      1
    74    71    75      1
    75    72    73      1
    76    72    76      1
    77    72    77      1
    78    73    78      1
    79    78    79      1
    80    78    81      1
    81    78    82      1
    82    79    80      1
    83    79    83      1
    84    79    84      1
    85    80    85      1
    86    85    86      1
    87    85    88      1
    88    85    89      1
    89    86    87      1
    90    86    90      1
    91    86    91      1
    92    87    92      1
    93    92    93      1
    94    92    95      1
    95    92    96      1
    96    93    94      1
    97    93    97      1
    98    93    98      1
    99    94    99      1
   100    99   100      1
   101    99   102      1
   102    99   103      1
   103   100   101      1
   104   100   104      1
   105   100   105      1
   106   101   106      1
   107   106   107      1
   108   106   109      1
   109   106   110      1
   110   107   108      1
   111   107   111      1
   112   107   112      1
   113   108   113      1
   114   113   114      1
   115   113   116      1
   116   113   117      1
   117   114   115      1
   118   114   118      1
   119   114   119      1
   120   115   120      1
   121   120   121      1
   122   120   123      1
   123   120   124      1
   124   121   122      1
   125   121   125      1
   126   121   126      1
   127   122   127      1
   128   127   128      1
   129   127   130      1
   130   127   131      1
   131   128   129      1
   132   128   132      1
   133   128   133      1
   134   129   134      1
   135   134   135      1
   136   134   137      1
   137   134   138      1
   138   135   136      1
   139   135   139      1
   140   135   140      1
   141   136   141      1
   142   141   142      1
   143   141   144      1
   144   141   145      1
   145   142   143      1
   146   142   146      1
   147   142   147      1
   148   143   148      1
   149   148   149      1
   150   148   151      1
   151   148   152      1
   152   149   150      1
   153   149   153      1
   154   149   154      1
   155   150   155      1
   156   155   156      1
   157   155   158      1
   158   155   159      1
   159   156   157      1
   160   156   160      1
   161   156   161      1
   162   157   162      1
   163   162   163      1
   164   162   165      1
   165   162   166      1
   166   163   164      1
   167   163   167      1
   168   163   168      1
   169   164   169      1
   170   169   170      1
   171   169   172      1
   172   169   173      1
   173   170   171      1
   174   170   174      1
   175   170   175      1
   176   171   176      1
   177   176   177      1
   178   176   179      1
   179   176   180      1
   180   177   178      1
   181   177   181      1
   182   177   182      1
   183   178   183      1
   184   183   184      1
   185   183   186      1
   186   183   187      1
   187   184   185      1
   188   184   188      1
   189   184   189      1
   190   185   190      1
   191   190   191      1
   192   190   193      1
   193   190   194      1
   194   191   192      1
   195   191   195      1
   196   191   196      1
   197   192   197      1
   198   197   198      1
   199   197   200      1
   200   197   201      1
   201   198   199      1
   202   198   202      1
   203   198   203      1
   204   199   204      1
   205   204   205      1
   206   204   207      1
   207   204   208      1
   208   205   206      1
   209   205   209      1
   210   205   210      1
   211   206   211      1
   212   211   212      1
   213   211   214      1
   214   211   215      1
   215   212   213      1
   216   212   216      1
   217   212   217      1
   218   213   218      1
   219   218   219      1
   220   218   221      1
   221   218   222      1
   222   219   220      1
   223   219   223      1
   224   219   224      1
   225   220   225      1
   226   225   226      1
   227   225   228      1
   228   225   229      1
   229   226   227      1
   230   226   230      1
   231   226   231      1
   232   227   232      1
   233   232   233      1
   234   232   235      1
   235   232   236      1
   236   233   234      1
   237   233   237      1
   238   233   238      1
   239   234   239      1
   240   239   240      1
   241   239   242      1
   242   239   243      1
   243   240   241      1
   244   240   244      1
   245   240   245      1
   246   241   246      1
   247   246   247      1
   248   246   249      1
   249   246   250      1
   250   247   248      1
   251   247   251      1
   252   247   252      1
   253   248   253      1
   254   253   254      1
   255   253   256      1
   256   253   257      1
   257   254   255      1
   258   254   258      1
   259   254   259      1
   260   255   260      1
   261   260   261      1
   262   260   263      1
   263   260   264      1
   264   261   262      1
   265   261   265      1
   266   261   266      1
   267   262   267      1
   268   267   268      1
   269   267   270      1
   270   267   271      1
   271   268   269      1
   272   268   272      1
   273   268   273      1
   274   269   274      1
   275   274   275      1
   276   274   277      1
   277   274   278      1
   278   275   276      1
   279   275   279      1
   280   275   280      1
   281   276   281      1
   282   281   282      1
   283   281   284      1
   284   281   285      1
   285   282   283      1
   286   282   286      1
   287   282   287      1
   288   283   288      1
   289   288   289      1
   290   288   291      1
   291   288   292      1
   292   289   290      1
   293   289   293      1
   294   289   294      1
   295   290   295      1
   296   295   296      1
   297   295   298      1
   298   295   299      1
   299   296   297      1
   300   296   300      1
   301   296   301      1
   302   297   302      1
   303   302   303      1
   304   302   305      1
   305   302   306      1
   306   303   304      1
   307   303   307      1
   308   303   308      1
   309   304   309      1
   310   309   310      1
   311   309   312      1
   312   309   313      1
   313   310   311      1
   314   310   314      1
   315   310   315      1
   316   311   316      1
   317   316   317      1
   318   316   319      1
   319   316   320      1
   320   317   318      1
   321   317   321      1
   322   317   322      1
   323   318   323      1
   324   323   324      1
   325   323   326      1
   326   323   327      1
   327   324   325      1
   328   324   328      1
   329   324   329      1
   330   325   330      1
   331   330   331      1
   332   330   333      1
   333   330   334      1
   334   331   332      1
   335   331   335      1
   336   331   336      1
   337   332   337      1
   338   337   338      1
   339   337   340      1
   340   337   341      1
   341   338   339      1
   342   338   342      1
   343   338   343      1
   344   339   344      1
   345   344   345      1
   346   344   347      1
   347   344   348      1
   348   345   346      1
   349   345   349      1
   350   345   350      1
   351   346   351      1
   352   351   352      1
   353   351   354      1
   354   351   355      1
   355   352   353      1
   356   352   356      1
   357   352   357      1
   358   353   358      1
   359   358   359      1
   360   358   361      1
   361   358   362      1
   362   359   360      1
   363   359   363      1
   364   359   364      1
   365   360   365      1
   366   365   366      1
   367   365   368      1
   368   365   369      1
   369   366   367      1
   370   366   370      1
   371   366   371      1
   372   367   372      1
   373   372   373      1
   374   372   375      1
   375   372   376      1
   376   373   374      1
   377   373   377      1
   378   373   378      1
   379   374   379      1
   380   379   380      1
   381   379   382      1
   382   379   383      1
   383   380   381      1
   384   380   384      1
   385   380   385      1
   386   381   386      1
   387   386   387      1
   388   386   389      1
   389   386   390      1
   390   387   388      1
   391   387   391      1
   392   387   392      1
   393   388   393      1
   394   393   394      1
   395   393   396      1
   396   393   397      1
   397   394   395      1
   398   394   398      1
   399   394   399      1
   400   395   400      1
   401   400   401      1
   402   400   403      1
   403   400   404      1
   404   401   402      1
   405   401   405      1
   406   401   406      1
   407   402   407      1
   408   407   408      1
   409   407   410      1
   410   407   411      1
   411   408   409      1
   412   408   412      1
   413   408   413      1
   414   409   414      1
