###
### Created by PolyChef-cpp17 on Mon May 12 10:39:08 2025
###

@<TRIPOS>MOLECULE
NO_INFO
1423 1422 1 0 0
SMALL
USER_CHARGES


@<TRIPOS>ATOM
      1 C         198.8030  252.6199   52.1889 C.3       0      M_A    0.0000
      2 C         198.8328  254.0516   51.6621 C.3       0      M_A    0.0000
      3 O         197.5382  254.4443   51.2065 O.3       0      M_A    0.0000
      4 H         198.0477  252.5031   52.9734 H         0      M_A    0.0000
      5 H         198.5350  251.9454   51.3677 H         0      M_A    0.0000
      6 H         199.5833  254.1468   50.8642 H         0      M_A    0.0000
      7 H         199.1306  254.7540   52.4506 H         0      M_A    0.0000
      8 C         196.9005  253.4009   50.4983 C.3       1      M_A    0.0000
      9 C         196.3649  253.8672   49.1479 C.3       1      M_A    0.0000
     10 O         194.9438  253.9955   49.1904 O.3       1      M_A    0.0000
     11 H         196.0997  252.9850   51.1190 H         1      M_A    0.0000
     12 H         197.6376  252.6068   50.3323 H         1      M_A    0.0000
     13 H         196.6803  253.1742   48.3546 H         1      M_A    0.0000
     14 H         196.7755  254.8489   48.8804 H         1      M_A    0.0000
     15 C         194.4988  255.0825   48.4046 C.3       2      M_A    0.0000
     16 C         193.8573  254.6225   47.0989 C.3       2      M_A    0.0000
     17 O         194.0890  255.5777   46.0637 O.3       2      M_A    0.0000
     18 H         195.3420  255.7553   48.2152 H         2      M_A    0.0000
     19 H         193.7560  255.6383   48.9882 H         2      M_A    0.0000
     20 H         192.7822  254.4453   47.2462 H         2      M_A    0.0000
     21 H         194.2841  253.6679   46.7667 H         2      M_A    0.0000
     22 C         193.5699  256.8468   46.4053 C.3       3      M_A    0.0000
     23 C         192.8924  257.5280   45.2199 C.3       3      M_A    0.0000
     24 O         193.6696  258.6373   44.7690 O.3       3      M_A    0.0000
     25 H         194.3777  257.4666   46.8086 H         3      M_A    0.0000
     26 H         192.8311  256.7052   47.2025 H         3      M_A    0.0000
     27 H         191.8732  257.8381   45.4921 H         3      M_A    0.0000
     28 H         192.7884  256.8349   44.3757 H         3      M_A    0.0000
     29 C         193.0712  259.2697   43.6559 C.3       4      M_A    0.0000
     30 C         193.0604  258.3715   42.4225 C.3       4      M_A    0.0000
     31 O         192.8673  259.1476   41.2400 O.3       4      M_A    0.0000
     32 H         193.5948  260.2105   43.4553 H         4      M_A    0.0000
     33 H         192.0375  259.5164   43.9240 H         4      M_A    0.0000
     34 H         192.2862  257.5973   42.5236 H         4      M_A    0.0000
     35 H         194.0146  257.8408   42.3150 H         4      M_A    0.0000
     36 C         192.4543  260.4637   41.5468 C.3       5      M_A    0.0000
     37 C         191.7327  261.1264   40.3771 C.3       5      M_A    0.0000
     38 O         192.6383  261.9299   39.6207 O.3       5      M_A    0.0000
     39 H         193.3268  261.0491   41.8559 H         5      M_A    0.0000
     40 H         191.7704  260.4116   42.4017 H         5      M_A    0.0000
     41 H         190.8819  261.7191   40.7427 H         5      M_A    0.0000
     42 H         191.3143  260.3740   39.6969 H         5      M_A    0.0000
     43 C         192.0395  262.4049   38.4323 C.3       6      M_A    0.0000
     44 C         193.0739  262.7328   37.3595 C.3       6      M_A    0.0000
     45 O         192.7711  263.9816   36.7375 O.3       6      M_A    0.0000
     46 H         191.4231  263.2791   38.6674 H         6      M_A    0.0000
     47 H         191.3729  261.6214   38.0542 H         6      M_A    0.0000
     48 H         193.1252  261.9201   36.6208 H         6      M_A    0.0000
     49 H         194.0775  262.8174   37.7947 H         6      M_A    0.0000
     50 C         193.0009  263.9343   35.3439 C.3       7      M_A    0.0000
     51 C         194.3755  263.3639   35.0076 C.3       7      M_A    0.0000
     52 O         194.7586  263.7298   33.6820 O.3       7      M_A    0.0000
     53 H         192.8772  264.9394   34.9270 H         7      M_A    0.0000
     54 H         192.2321  263.2933   34.8972 H         7      M_A    0.0000
     55 H         194.3753  262.2719   35.1368 H         7      M_A    0.0000
     56 H         195.1404  263.7546   35.6903 H         7      M_A    0.0000
     57 C         193.6659  263.6563   32.7890 C.3       8      M_A    0.0000
     58 C         193.4492  262.2409   32.2620 C.3       8      M_A    0.0000
     59 O         193.7322  262.1785   30.8642 O.3       8      M_A    0.0000
     60 H         193.8269  264.3634   31.9683 H         8      M_A    0.0000
     61 H         192.7671  263.9749   33.3293 H         8      M_A    0.0000
     62 H         192.4236  261.9085   32.4775 H         8      M_A    0.0000
     63 H         194.1158  261.5287   32.7642 H         8      M_A    0.0000
     64 C         193.0250  261.1264   30.2397 C.3       9      M_A    0.0000
     65 C         193.6328  259.7620   30.5510 C.3       9      M_A    0.0000
     66 O         194.5304  259.3656   29.5141 O.3       9      M_A    0.0000
     67 H         192.9938  261.3083   29.1602 H         9      M_A    0.0000
     68 H         191.9935  261.1478   30.6095 H         9      M_A    0.0000
     69 H         192.8377  259.0169   30.6981 H         9      M_A    0.0000
     70 H         194.2046  259.7912   31.4870 H         9      M_A    0.0000
     71 C         195.2517  258.2039   29.8706 C.3      10      M_A    0.0000
     72 C         196.6297  258.1604   29.2167 C.3      10      M_A    0.0000
     73 O         196.9086  256.8500   28.7239 O.3      10      M_A    0.0000
     74 H         194.6605  257.3209   29.6057 H        10      M_A    0.0000
     75 H         195.3759  258.2052   30.9595 H        10      M_A    0.0000
     76 H         197.3985  258.4917   29.9295 H        10      M_A    0.0000
     77 H         196.6818  258.8498   28.3648 H        10      M_A    0.0000
     78 C         197.6841  256.1065   29.6419 C.3      11      M_A    0.0000
     79 C         198.3413  254.8943   28.9887 C.3      11      M_A    0.0000
     80 O         197.6712  253.6938   29.3731 O.3      11      M_A    0.0000
     81 H         197.0511  255.8071   30.4841 H        11      M_A    0.0000
     82 H         198.4669  256.7661   30.0337 H        11      M_A    0.0000
     83 H         199.4093  254.8563   29.2472 H        11      M_A    0.0000
     84 H         198.2914  254.9625   27.8948 H        11      M_A    0.0000
     85 C         197.7156  252.7249   28.3454 C.3      12      M_A    0.0000
     86 C         197.6749  251.3023   28.8954 C.3      12      M_A    0.0000
     87 O         198.4265  250.4213   28.0606 O.3      12      M_A    0.0000
     88 H         198.6125  252.8886   27.7385 H        12      M_A    0.0000
     89 H         196.8447  252.8799   27.6982 H        12      M_A    0.0000
     90 H         196.6335  250.9647   28.9979 H        12      M_A    0.0000
     91 H         198.1137  251.2571   29.8999 H        12      M_A    0.0000
     92 C         197.8055  250.2444   26.8036 C.3      13      M_A    0.0000
     93 C         196.9763  248.9648   26.7479 C.3      13      M_A    0.0000
     94 O         197.8059  247.8437   26.4436 O.3      13      M_A    0.0000
     95 H         198.5724  250.2529   26.0218 H        13      M_A    0.0000
     96 H         197.1458  251.1023   26.6300 H        13      M_A    0.0000
     97 H         196.1632  249.0711   26.0154 H        13      M_A    0.0000
     98 H         196.4963  248.7656   27.7142 H        13      M_A    0.0000
     99 C         197.8932  246.9529   27.5371 C.3      14      M_A    0.0000
    100 C         198.6078  245.6568   27.1662 C.3      14      M_A    0.0000
    101 O         197.8749  244.5276   27.6414 O.3      14      M_A    0.0000
    102 H         196.8856  246.7540   27.9173 H        14      M_A    0.0000
    103 H         198.4557  247.4523   28.3344 H        14      M_A    0.0000
    104 H         199.6339  245.6627   27.5613 H        14      M_A    0.0000
    105 H         198.6975  245.5557   26.0774 H        14      M_A    0.0000
    106 C         198.3901  243.3198   27.1194 C.3      15      M_A    0.0000
    107 C         198.4767  242.2265   28.1803 C.3      15      M_A    0.0000
    108 O         199.5171  241.3021   27.8626 O.3      15      M_A    0.0000
    109 H         199.3701  243.5136   26.6706 H        15      M_A    0.0000
    110 H         197.7195  242.9853   26.3195 H        15      M_A    0.0000
    111 H         197.5070  241.7180   28.2812 H        15      M_A    0.0000
    112 H         198.7051  242.6524   29.1652 H        15      M_A    0.0000
    113 C         199.0298  239.9774   27.7970 C.3      16      M_A    0.0000
    114 C         199.6744  239.0759   28.8457 C.3      16      M_A    0.0000
    115 O         199.8212  237.7481   28.3423 O.3      16      M_A    0.0000
    116 H         199.1915  239.5867   26.7866 H        16      M_A    0.0000
    117 H         197.9482  240.0072   27.9716 H        16      M_A    0.0000
    118 H         199.0831  239.0890   29.7726 H        16      M_A    0.0000
    119 H         200.6749  239.4381   29.1133 H        16      M_A    0.0000
    120 C         200.5789  236.9424   29.2218 C.3      17      M_A    0.0000
    121 C         200.9671  235.6095   28.5886 C.3      17      M_A    0.0000
    122 O         202.0657  235.0244   29.2877 O.3      17      M_A    0.0000
    123 H         200.0111  236.7905   30.1460 H        17      M_A    0.0000
    124 H         201.4916  237.4915   29.4799 H        17      M_A    0.0000
    125 H         201.1998  235.7490   27.5231 H        17      M_A    0.0000
    126 H         200.1338  234.8971   28.6312 H        17      M_A    0.0000
    127 C         202.2993  233.6964   28.8653 C.3      18      M_A    0.0000
    128 C         203.7436  233.4802   28.4232 C.3      18      M_A    0.0000
    129 O         203.7882  232.9735   27.0893 O.3      18      M_A    0.0000
    130 H         201.5984  233.4487   28.0610 H        18      M_A    0.0000
    131 H         202.0836  233.0314   29.7094 H        18      M_A    0.0000
    132 H         204.2584  232.8073   29.1240 H        18      M_A    0.0000
    133 H         204.3032  234.4239   28.4350 H        18      M_A    0.0000
    134 C         205.0761  233.1150   26.5251 C.3      19      M_A    0.0000
    135 C         205.4981  231.8767   25.7398 C.3      19      M_A    0.0000
    136 O         206.8821  231.5978   25.9510 O.3      19      M_A    0.0000
    137 H         205.7926  233.3409   27.3221 H        19      M_A    0.0000
    138 H         205.0538  233.9750   25.8460 H        19      M_A    0.0000
    139 H         205.2757  232.0109   24.6714 H        19      M_A    0.0000
    140 H         204.9320  230.9945   26.0639 H        19      M_A    0.0000
    141 C         207.7030  232.3996   25.1264 C.3      20      M_A    0.0000
    142 C         207.5573  232.0424   23.6501 C.3      20      M_A    0.0000
    143 O         208.4881  231.0225   23.2878 O.3      20      M_A    0.0000
    144 H         208.7431  232.3032   25.4556 H        20      M_A    0.0000
    145 H         207.4057  233.4448   25.2692 H        20      M_A    0.0000
    146 H         207.6854  232.9399   23.0280 H        20      M_A    0.0000
    147 H         206.5514  231.6602   23.4361 H        20      M_A    0.0000
    148 C         208.2501  230.5463   21.9788 C.3      21      M_A    0.0000
    149 C         206.9577  229.7404   21.8873 C.3      21      M_A    0.0000
    150 O         206.8251  229.1524   20.5932 O.3      21      M_A    0.0000
    151 H         209.1104  229.9522   21.6527 H        21      M_A    0.0000
    152 H         208.1749  231.4138   21.3131 H        21      M_A    0.0000
    153 H         206.0948  230.3784   22.1268 H        21      M_A    0.0000
    154 H         206.9508  228.9247   22.6210 H        21      M_A    0.0000
    155 C         207.4107  229.9627   19.5945 C.3      22      M_A    0.0000
    156 C         206.3842  230.8576   18.9063 C.3      22      M_A    0.0000
    157 O         206.3031  230.5481   17.5151 O.3      22      M_A    0.0000
    158 H         207.9249  229.3218   18.8704 H        22      M_A    0.0000
    159 H         208.1672  230.5945   20.0738 H        22      M_A    0.0000
    160 H         206.6353  231.9159   19.0665 H        22      M_A    0.0000
    161 H         205.3848  230.7099   19.3345 H        22      M_A    0.0000
    162 C         205.1142  231.0525   16.9414 C.3      23      M_A    0.0000
    163 C         204.8872  230.5203   15.5296 C.3      23      M_A    0.0000
    164 O         204.2743  231.5169   14.7116 O.3      23      M_A    0.0000
    165 H         205.1497  232.1471   16.9503 H        23      M_A    0.0000
    166 H         204.2760  230.7429   17.5762 H        23      M_A    0.0000
    167 H         204.2824  229.6027   15.5627 H        23      M_A    0.0000
    168 H         205.8380  230.2457   15.0559 H        23      M_A    0.0000
    169 C         203.4948  230.9363   13.6858 C.3      24      M_A    0.0000
    170 C         204.1745  229.7182   13.0677 C.3      24      M_A    0.0000
    171 O         203.5803  229.3980   11.8098 O.3      24      M_A    0.0000
    172 H         203.2794  231.6963   12.9272 H        24      M_A    0.0000
    173 H         202.5394  230.6251   14.1238 H        24      M_A    0.0000
    174 H         204.1283  228.8655   13.7604 H        24      M_A    0.0000
    175 H         205.2395  229.9118   12.8881 H        24      M_A    0.0000
    176 C         202.4752  228.5312   11.9655 C.3      25      M_A    0.0000
    177 C         202.0922  227.8483   10.6559 C.3      25      M_A    0.0000
    178 O         200.7452  227.3789   10.7115 O.3      25      M_A    0.0000
    179 H         201.6327  229.0968   12.3776 H        25      M_A    0.0000
    180 H         202.7495  227.7639   12.6985 H        25      M_A    0.0000
    181 H         202.7923  227.0294   10.4360 H        25      M_A    0.0000
    182 H         202.1618  228.5477    9.8134 H        25      M_A    0.0000
    183 C         200.2279  227.1373    9.4189 C.3      26      M_A    0.0000
    184 C         198.8562  226.4707    9.4647 C.3      26      M_A    0.0000
    185 O         198.9120  225.1700    8.8793 O.3      26      M_A    0.0000
    186 H         200.9440  226.5298    8.8552 H        26      M_A    0.0000
    187 H         200.1364  228.1021    8.9068 H        26      M_A    0.0000
    188 H         198.1099  227.1034    8.9630 H        26      M_A    0.0000
    189 H         198.5125  226.3507   10.4997 H        26      M_A    0.0000
    190 C         197.6994  224.8416    8.2322 C.3      27      M_A    0.0000
    191 C         196.4813  225.2121    9.0729 C.3      27      M_A    0.0000
    192 O         195.8894  224.0429    9.6390 O.3      27      M_A    0.0000
    193 H         197.7020  223.7737    7.9891 H        27      M_A    0.0000
    194 H         197.6605  225.3964    7.2877 H        27      M_A    0.0000
    195 H         195.7568  225.7728    8.4649 H        27      M_A    0.0000
    196 H         196.7631  225.8723    9.9028 H        27      M_A    0.0000
    197 C         195.0487  223.3878    8.7111 C.3      28      M_A    0.0000
    198 C         194.7771  221.9391    9.1055 C.3      28      M_A    0.0000
    199 O         195.3661  221.0446    8.1617 O.3      28      M_A    0.0000
    200 H         195.5002  223.4483    7.7151 H        28      M_A    0.0000
    201 H         194.0970  223.9304    8.6771 H        28      M_A    0.0000
    202 H         193.6950  221.7674    9.1978 H        28      M_A    0.0000
    203 H         195.2100  221.7119   10.0878 H        28      M_A    0.0000
    204 C         194.7662  219.7663    8.2166 C.3      29      M_A    0.0000
    205 C         194.6777  219.2344    9.6439 C.3      29      M_A    0.0000
    206 O         194.4766  217.8212    9.6399 O.3      29      M_A    0.0000
    207 H         195.3274  219.0803    7.5732 H        29      M_A    0.0000
    208 H         193.7534  219.8515    7.8065 H        29      M_A    0.0000
    209 H         193.8768  219.7508   10.1924 H        29      M_A    0.0000
    210 H         195.6056  219.4326   10.1949 H        29      M_A    0.0000
    211 C         193.1160  217.4919    9.8328 C.3      30      M_A    0.0000
    212 C         192.7827  216.0981    9.3088 C.3      30      M_A    0.0000
    213 O         191.3741  215.9558    9.1260 O.3      30      M_A    0.0000
    214 H         192.4924  218.2540    9.3534 H        30      M_A    0.0000
    215 H         192.9107  217.5245   10.9090 H        30      M_A    0.0000
    216 H         193.1768  215.3317    9.9916 H        30      M_A    0.0000
    217 H         193.2597  215.9196    8.3370 H        30      M_A    0.0000
    218 C         191.0573  214.7444    8.4709 C.3      31      M_A    0.0000
    219 C         190.2278  213.8151    9.3520 C.3      31      M_A    0.0000
    220 O         191.0236  212.7258    9.8190 O.3      31      M_A    0.0000
    221 H         191.9848  214.2596    8.1482 H        31      M_A    0.0000
    222 H         190.4806  214.9886    7.5714 H        31      M_A    0.0000
    223 H         189.3451  213.4584    8.8019 H        31      M_A    0.0000
    224 H         189.8476  214.3458   10.2337 H        31      M_A    0.0000
    225 C         190.9891  211.6369    8.9190 C.3      32      M_A    0.0000
    226 C         190.5954  210.3341    9.6088 C.3      32      M_A    0.0000
    227 O         191.7019  209.4329    9.6452 O.3      32      M_A    0.0000
    228 H         191.9650  211.5462    8.4302 H        32      M_A    0.0000
    229 H         190.2496  211.8646    8.1428 H        32      M_A    0.0000
    230 H         189.7292  209.8837    9.1032 H        32      M_A    0.0000
    231 H         190.2863  210.5168   10.6456 H        32      M_A    0.0000
    232 C         191.4663  208.3604   10.5347 C.3      33      M_A    0.0000
    233 C         191.3969  207.0189    9.8109 C.3      33      M_A    0.0000
    234 O         190.3852  206.1919   10.3857 O.3      33      M_A    0.0000
    235 H         190.5453  208.5558   11.0941 H        33      M_A    0.0000
    236 H         192.2920  208.3323   11.2550 H        33      M_A    0.0000
    237 H         192.3786  206.5242    9.8337 H        33      M_A    0.0000
    238 H         191.1460  207.1568    8.7518 H        33      M_A    0.0000
    239 C         190.9465  205.1237   11.1211 C.3      34      M_A    0.0000
    240 C         189.9211  204.0359   11.4268 C.3      34      M_A    0.0000
    241 O         190.0023  203.6423   12.7966 O.3      34      M_A    0.0000
    242 H         191.3909  205.5179   12.0412 H        34      M_A    0.0000
    243 H         191.7552  204.6902   10.5217 H        34      M_A    0.0000
    244 H         190.0665  203.1777   10.7549 H        34      M_A    0.0000
    245 H         188.9006  204.3971   11.2487 H        34      M_A    0.0000
    246 C         189.3404  202.4144   13.0221 C.3      35      M_A    0.0000
    247 C         189.4656  201.9521   14.4708 C.3      35      M_A    0.0000
    248 O         189.6156  200.5338   14.5324 O.3      35      M_A    0.0000
    249 H         189.7371  201.6625   12.3316 H        35      M_A    0.0000
    250 H         188.2795  202.5549   12.7852 H        35      M_A    0.0000
    251 H         188.5953  202.2878   15.0528 H        35      M_A    0.0000
    252 H         190.3468  202.3968   14.9500 H        35      M_A    0.0000
    253 C         188.4187  199.9044   14.9425 C.3      36      M_A    0.0000
    254 C         188.6833  198.6792   15.8125 C.3      36      M_A    0.0000
    255 O         188.2373  197.4930   15.1552 O.3      36      M_A    0.0000
    256 H         187.8318  199.6407   14.0562 H        36      M_A    0.0000
    257 H         187.8370  200.6312   15.5211 H        36      M_A    0.0000
    258 H         188.2005  198.7986   16.7930 H        36      M_A    0.0000
    259 H         189.7562  198.5619   16.0096 H        36      M_A    0.0000
    260 C         188.1320  196.4103   16.0572 C.3      37      M_A    0.0000
    261 C         189.3727  196.2711   16.9343 C.3      37      M_A    0.0000
    262 O         189.9195  194.9571   16.8228 O.3      37      M_A    0.0000
    263 H         187.9422  195.4916   15.4920 H        37      M_A    0.0000
    264 H         187.2622  196.5901   16.6994 H        37      M_A    0.0000
    265 H         189.1289  196.5154   17.9782 H        37      M_A    0.0000
    266 H         190.1526  196.9786   16.6264 H        37      M_A    0.0000
    267 C         188.9110  193.9953   16.5893 C.3      38      M_A    0.0000
    268 C         189.0122  192.8128   17.5482 C.3      38      M_A    0.0000
    269 O         188.8346  191.5825   16.8462 O.3      38      M_A    0.0000
    270 H         188.9670  193.6646   15.5467 H        38      M_A    0.0000
    271 H         187.9401  194.4840   16.7303 H        38      M_A    0.0000
    272 H         188.2790  192.9191   18.3606 H        38      M_A    0.0000
    273 H         189.9991  192.7785   18.0264 H        38      M_A    0.0000
    274 C         189.2345  190.4771   17.6304 C.3      39      M_A    0.0000
    275 C         188.4727  189.2071   17.2633 C.3      39      M_A    0.0000
    276 O         188.5486  188.2538   18.3232 O.3      39      M_A    0.0000
    277 H         189.1039  190.7243   18.6894 H        39      M_A    0.0000
    278 H         190.3042  190.3112   17.4583 H        39      M_A    0.0000
    279 H         188.8604  188.7906   16.3224 H        39      M_A    0.0000
    280 H         187.4108  189.4223   17.0905 H        39      M_A    0.0000
    281 C         187.4662  187.3464   18.2813 C.3      40      M_A    0.0000
    282 C         187.7880  186.0356   18.9929 C.3      40      M_A    0.0000
    283 O         187.4395  184.9214   18.1713 O.3      40      M_A    0.0000
    284 H         187.1871  187.1711   17.2368 H        40      M_A    0.0000
    285 H         186.6110  187.8188   18.7780 H        40      M_A    0.0000
    286 H         187.2721  185.9939   19.9630 H        40      M_A    0.0000
    287 H         188.8606  185.9602   19.2108 H        40      M_A    0.0000
    288 C         188.0000  183.7210   18.6628 C.3      41      M_A    0.0000
    289 C         187.0006  182.5683   18.6380 C.3      41      M_A    0.0000
    290 O         187.2453  181.6703   19.7204 O.3      41      M_A    0.0000
    291 H         188.3805  183.8926   19.6753 H        41      M_A    0.0000
    292 H         188.8546  183.4630   18.0268 H        41      M_A    0.0000
    293 H         187.0442  182.0489   17.6699 H        41      M_A    0.0000
    294 H         185.9728  182.9375   18.7434 H        41      M_A    0.0000
    295 C         188.1546  180.6530   19.3530 C.3      42      M_A    0.0000
    296 C         187.4749  179.2925   19.2296 C.3      42      M_A    0.0000
    297 O         187.5244  178.5937   20.4735 O.3      42      M_A    0.0000
    298 H         188.9707  180.6225   20.0828 H        42      M_A    0.0000
    299 H         188.5876  180.9223   18.3827 H        42      M_A    0.0000
    300 H         187.9404  178.7074   18.4235 H        42      M_A    0.0000
    301 H         186.4179  179.4050   18.9578 H        42      M_A    0.0000
    302 C         186.2577  178.0767   20.8270 C.3      43      M_A    0.0000
    303 C         186.1982  176.5584   20.6882 C.3      43      M_A    0.0000
    304 O         184.8429  176.1102   20.6701 O.3      43      M_A    0.0000
    305 H         185.4903  178.5602   20.2130 H        43      M_A    0.0000
    306 H         186.0638  178.3451   21.8718 H        43      M_A    0.0000
    307 H         186.7665  176.0806   21.4992 H        43      M_A    0.0000
    308 H         186.6649  176.2313   19.7507 H        43      M_A    0.0000
    309 C         184.0915  176.6926   21.7156 C.3      44      M_A    0.0000
    310 C         183.8755  175.7250   22.8754 C.3      44      M_A    0.0000
    311 O         182.5677  175.1560   22.8155 O.3      44      M_A    0.0000
    312 H         183.1365  177.0481   21.3142 H        44      M_A    0.0000
    313 H         184.6433  177.5664   22.0808 H        44      M_A    0.0000
    314 H         184.0454  176.2371   23.8335 H        44      M_A    0.0000
    315 H         184.5956  174.8981   22.8361 H        44      M_A    0.0000
    316 C         182.3891  174.1645   23.8064 C.3      45      M_A    0.0000
    317 C         181.6927  172.9229   23.2573 C.3      45      M_A    0.0000
    318 O         180.5195  172.6303   24.0161 O.3      45      M_A    0.0000
    319 H         181.8296  174.5935   24.6445 H        45      M_A    0.0000
    320 H         183.3793  173.8795   24.1802 H        45      M_A    0.0000
    321 H         182.3870  172.0704   23.2499 H        45      M_A    0.0000
    322 H         181.3811  173.0755   22.2164 H        45      M_A    0.0000
    323 C         180.2566  171.2422   24.0475 C.3      46      M_A    0.0000
    324 C         178.7869  170.9424   24.3270 C.3      46      M_A    0.0000
    325 O         178.6010  170.5830   25.6960 O.3      46      M_A    0.0000
    326 H         180.9050  170.7726   24.7948 H        46      M_A    0.0000
    327 H         180.5234  170.8266   23.0691 H        46      M_A    0.0000
    328 H         178.4261  170.1518   23.6535 H        46      M_A    0.0000
    329 H         178.1624  171.8229   24.1309 H        46      M_A    0.0000
    330 C         177.3491  171.0239   26.1811 C.3      47      M_A    0.0000
    331 C         177.2084  170.8095   27.6852 C.3      47      M_A    0.0000
    332 O         176.5594  169.5670   27.9551 O.3      47      M_A    0.0000
    333 H         176.5523  170.5105   25.6324 H        47      M_A    0.0000
    334 H         177.2627  172.0951   25.9661 H        47      M_A    0.0000
    335 H         176.6657  171.6510   28.1394 H        47      M_A    0.0000
    336 H         178.1916  170.7788   28.1711 H        47      M_A    0.0000
    337 C         176.5817  169.2606   29.3344 C.3      48      M_A    0.0000
    338 C         177.9850  168.9136   29.8228 C.3      48      M_A    0.0000
    339 O         178.0213  167.5819   30.3358 O.3      48      M_A    0.0000
    340 H         175.8813  168.4417   29.5299 H        48      M_A    0.0000
    341 H         176.2236  170.1406   29.8809 H        48      M_A    0.0000
    342 H         178.3150  169.6420   30.5775 H        48      M_A    0.0000
    343 H         178.7112  168.9695   29.0024 H        48      M_A    0.0000
    344 C         178.1898  167.5725   31.7388 C.3      49      M_A    0.0000
    345 C         178.5652  166.1895   32.2627 C.3      49      M_A    0.0000
    346 O         177.3926  165.4250   32.5425 O.3      49      M_A    0.0000
    347 H         177.2720  167.9384   32.2114 H        49      M_A    0.0000
    348 H         178.9932  168.2756   31.9864 H        49      M_A    0.0000
    349 H         179.2045  166.2814   33.1526 H        49      M_A    0.0000
    350 H         179.1502  165.6336   31.5193 H        49      M_A    0.0000
    351 C         176.7258  165.0474   31.3553 C.3      50      M_A    0.0000
    352 C         175.7399  163.9064   31.5885 C.3      50      M_A    0.0000
    353 O         176.4231  162.6533   31.6201 O.3      50      M_A    0.0000
    354 H         177.4696  164.7784   30.5977 H        50      M_A    0.0000
    355 H         176.1764  165.9205   30.9851 H        50      M_A    0.0000
    356 H         174.9582  163.9163   30.8153 H        50      M_A    0.0000
    357 H         175.2240  164.0236   32.5497 H        50      M_A    0.0000
    358 C         176.4705  162.1229   32.9290 C.3      51      M_A    0.0000
    359 C         177.2416  163.0262   33.8869 C.3      51      M_A    0.0000
    360 O         177.7059  162.2813   35.0127 O.3      51      M_A    0.0000
    361 H         176.9086  161.1198   32.8925 H        51      M_A    0.0000
    362 H         175.4403  162.0217   33.2891 H        51      M_A    0.0000
    363 H         176.6132  163.8727   34.1991 H        51      M_A    0.0000
    364 H         178.1210  163.4603   33.3950 H        51      M_A    0.0000
    365 C         176.7790  162.3231   36.0785 C.3      52      M_A    0.0000
    366 C         177.2971  163.1403   37.2583 C.3      52      M_A    0.0000
    367 O         177.2558  162.3683   38.4584 O.3      52      M_A    0.0000
    368 H         176.5376  161.2990   36.3826 H        52      M_A    0.0000
    369 H         175.8572  162.7841   35.7055 H        52      M_A    0.0000
    370 H         176.7178  164.0692   37.3602 H        52      M_A    0.0000
    371 H         178.3394  163.4433   37.0984 H        52      M_A    0.0000
    372 C         176.9197  163.1661   39.5753 C.3      53      M_A    0.0000
    373 C         177.7186  164.4655   39.6139 C.3      53      M_A    0.0000
    374 O         178.3323  164.6379   40.8912 O.3      53      M_A    0.0000
    375 H         177.0700  162.5823   40.4897 H        53      M_A    0.0000
    376 H         175.8527  163.4077   39.5080 H        53      M_A    0.0000
    377 H         177.0699  165.3173   39.3637 H        53      M_A    0.0000
    378 H         178.5188  164.4568   38.8634 H        53      M_A    0.0000
    379 C         177.3738  164.6409   41.9294 C.3      54      M_A    0.0000
    380 C         177.1151  166.0448   42.4680 C.3      54      M_A    0.0000
    381 O         177.6683  166.1889   43.7761 O.3      54      M_A    0.0000
    382 H         177.7075  163.9672   42.7259 H        54      M_A    0.0000
    383 H         176.4379  164.2382   41.5253 H        54      M_A    0.0000
    384 H         176.0369  166.2602   42.4639 H        54      M_A    0.0000
    385 H         177.5831  166.8032   41.8280 H        54      M_A    0.0000
    386 C         178.1013  167.5133   44.0116 C.3      55      M_A    0.0000
    387 C         179.4457  167.5583   44.7316 C.3      55      M_A    0.0000
    388 O         179.2723  167.9581   46.0910 O.3      55      M_A    0.0000
    389 H         177.3307  168.0455   44.5794 H        55      M_A    0.0000
    390 H         178.2020  168.0125   43.0410 H        55      M_A    0.0000
    391 H         180.1373  168.2297   44.2026 H        55      M_A    0.0000
    392 H         179.9209  166.5694   44.7381 H        55      M_A    0.0000
    393 C         180.5088  168.2676   46.7009 C.3      56      M_A    0.0000
    394 C         181.5068  167.1188   46.5909 C.3      56      M_A    0.0000
    395 O         182.5082  167.2271   47.6025 O.3      56      M_A    0.0000
    396 H         180.3330  168.5397   47.7471 H        56      M_A    0.0000
    397 H         180.9233  169.1471   46.1949 H        56      M_A    0.0000
    398 H         181.9536  167.0991   45.5864 H        56      M_A    0.0000
    399 H         181.0078  166.1509   46.7250 H        56      M_A    0.0000
    400 C         183.7732  166.8178   47.1239 C.3      57      M_A    0.0000
    401 C         184.0942  165.3768   47.5095 C.3      57      M_A    0.0000
    402 O         185.3802  165.2978   48.1243 O.3      57      M_A    0.0000
    403 H         184.5373  167.5070   47.4991 H        57      M_A    0.0000
    404 H         183.7622  166.8983   46.0309 H        57      M_A    0.0000
    405 H         184.0325  164.7249   46.6263 H        57      M_A    0.0000
    406 H         183.3617  164.9905   48.2293 H        57      M_A    0.0000
    407 C         185.7861  163.9562   48.3039 C.3      58      M_A    0.0000
    408 C         186.3996  163.7215   49.6810 C.3      58      M_A    0.0000
    409 O         187.5911  162.9428   49.5720 O.3      58      M_A    0.0000
    410 H         186.4872  163.6853   47.5073 H        58      M_A    0.0000
    411 H         184.9007  163.3191   48.1969 H        58      M_A    0.0000
    412 H         185.6674  163.2410   50.3459 H        58      M_A    0.0000
    413 H         186.6708  164.6720   50.1572 H        58      M_A    0.0000
    414 C         187.2990  161.5810   49.3333 C.3      59      M_A    0.0000
    415 C         187.8264  160.6774   50.4440 C.3      59      M_A    0.0000
    416 O         189.0721  160.0927   50.0643 O.3      59      M_A    0.0000
    417 H         187.7104  161.2924   48.3602 H        59      M_A    0.0000
    418 H         186.2095  161.4749   49.2773 H        59      M_A    0.0000
    419 H         187.0822  159.9071   50.6921 H        59      M_A    0.0000
    420 H         187.9986  161.2477   51.3654 H        59      M_A    0.0000
    421 C         189.8660  159.7883   51.1930 C.3      60      M_A    0.0000
    422 C         190.3162  158.3305   51.2020 C.3      60      M_A    0.0000
    423 O         190.2569  157.7966   52.5246 O.3      60      M_A    0.0000
    424 H         189.3054  160.0345   52.1010 H        60      M_A    0.0000
    425 H         190.7520  160.4329   51.1654 H        60      M_A    0.0000
    426 H         191.3280  158.2431   50.7805 H        60      M_A    0.0000
    427 H         189.6648  157.7144   50.5696 H        60      M_A    0.0000
    428 C         191.4209  158.1106   53.2618 C.3      61      M_A    0.0000
    429 C         192.1144  156.8622   53.7992 C.3      61      M_A    0.0000
    430 O         191.5379  156.4659   55.0435 O.3      61      M_A    0.0000
    431 H         191.1555  158.7959   54.0739 H        61      M_A    0.0000
    432 H         192.1104  158.6395   52.5939 H        61      M_A    0.0000
    433 H         193.1948  157.0411   53.8980 H        61      M_A    0.0000
    434 H         192.0038  156.0213   53.1032 H        61      M_A    0.0000
    435 C         191.0439  155.1431   54.9867 C.3      62      M_A    0.0000
    436 C         189.9761  154.8830   56.0452 C.3      62      M_A    0.0000
    437 O         190.5083  154.0948   57.1098 O.3      62      M_A    0.0000
    438 H         191.8809  154.4444   55.0895 H        62      M_A    0.0000
    439 H         190.6042  154.9900   53.9945 H        62      M_A    0.0000
    440 H         189.0997  154.4001   55.5895 H        62      M_A    0.0000
    441 H         189.6176  155.8241   56.4807 H        62      M_A    0.0000
    442 C         190.1062  154.5898   58.3708 C.3      63      M_A    0.0000
    443 C         189.1978  153.6109   59.1088 C.3      63      M_A    0.0000
    444 O         188.3880  154.3003   60.0611 O.3      63      M_A    0.0000
    445 H         189.6148  155.5590   58.2341 H        63      M_A    0.0000
    446 H         191.0084  154.7572   58.9703 H        63      M_A    0.0000
    447 H         189.7978  152.8245   59.5889 H        63      M_A    0.0000
    448 H         188.5220  153.1003   58.4114 H        63      M_A    0.0000
    449 C         189.0417  154.4157   61.3086 C.3      64      M_A    0.0000
    450 C         188.1005  154.9013   62.4071 C.3      64      M_A    0.0000
    451 O         188.7975  155.7394   63.3289 O.3      64      M_A    0.0000
    452 H         189.9019  155.0849   61.2008 H        64      M_A    0.0000
    453 H         189.4242  153.4255   61.5816 H        64      M_A    0.0000
    454 H         187.6381  154.0439   62.9170 H        64      M_A    0.0000
    455 H         187.2763  155.4904   61.9859 H        64      M_A    0.0000
    456 C         187.9116  156.3475   64.2467 C.3      65      M_A    0.0000
    457 C         188.4098  156.2370   65.6847 C.3      65      M_A    0.0000
    458 O         187.3198  155.9980   66.5750 O.3      65      M_A    0.0000
    459 H         186.9190  155.8981   64.1366 H        65      M_A    0.0000
    460 H         187.8268  157.4075   63.9814 H        65      M_A    0.0000
    461 H         188.9637  157.1444   65.9652 H        65      M_A    0.0000
    462 H         189.1123  155.4012   65.7937 H        65      M_A    0.0000
    463 C         187.7731  155.7100   67.8820 C.3      66      M_A    0.0000
    464 C         186.6244  155.3655   68.8253 C.3      66      M_A    0.0000
    465 O         186.6071  156.2577   69.9396 O.3      66      M_A    0.0000
    466 H         188.3498  156.5626   68.2563 H        66      M_A    0.0000
    467 H         188.4520  154.8516   67.8218 H        66      M_A    0.0000
    468 H         186.7028  154.3187   69.1524 H        66      M_A    0.0000
    469 H         185.6570  155.4575   68.3158 H        66      M_A    0.0000
    470 C         185.3056  156.3937   70.4730 C.3      67      M_A    0.0000
    471 C         185.2438  155.9961   71.9448 C.3      67      M_A    0.0000
    472 O         184.6138  154.7237   72.0935 O.3      67      M_A    0.0000
    473 H         184.6094  155.7980   69.8731 H        67      M_A    0.0000
    474 H         185.0102  157.4448   70.3771 H        67      M_A    0.0000
    475 H         184.7227  156.7706   72.5257 H        67      M_A    0.0000
    476 H         186.2511  155.9158   72.3724 H        67      M_A    0.0000
    477 C         185.0351  154.0728   73.2748 C.3      68      M_A    0.0000
    478 C         183.8581  153.5539   74.0955 C.3      68      M_A    0.0000
    479 O         184.1003  153.7385   75.4902 O.3      68      M_A    0.0000
    480 H         185.6530  154.7611   73.8612 H        68      M_A    0.0000
    481 H         185.6667  153.2250   72.9855 H        68      M_A    0.0000
    482 H         183.6672  152.4972   73.8592 H        68      M_A    0.0000
    483 H         182.9371  154.0963   73.8474 H        68      M_A    0.0000
    484 C         182.9937  153.3263   76.2663 C.3      69      M_A    0.0000
    485 C         183.1865  153.6320   77.7487 C.3      69      M_A    0.0000
    486 O         183.7163  152.4946   78.4295 O.3      69      M_A    0.0000
    487 H         182.8206  152.2573   76.1024 H        69      M_A    0.0000
    488 H         182.1098  153.8644   75.9054 H        69      M_A    0.0000
    489 H         182.2364  153.9587   78.1955 H        69      M_A    0.0000
    490 H         183.8939  154.4586   77.8904 H        69      M_A    0.0000
    491 C         183.1729  152.3694   79.7279 C.3      70      M_A    0.0000
    492 C         184.2566  152.2265   80.7926 C.3      70      M_A    0.0000
    493 O         184.5752  150.8507   81.0009 O.3      70      M_A    0.0000
    494 H         182.4853  151.5172   79.7469 H        70      M_A    0.0000
    495 H         182.5876  153.2722   79.9367 H        70      M_A    0.0000
    496 H         183.9362  152.7088   81.7273 H        70      M_A    0.0000
    497 H         185.1790  152.7344   80.4844 H        70      M_A    0.0000
    498 C         183.6455  150.2296   81.8650 C.3      71      M_A    0.0000
    499 C         184.3322  149.4566   82.9871 C.3      71      M_A    0.0000
    500 O         184.7722  148.1815   82.5200 O.3      71      M_A    0.0000
    501 H         182.9924  149.5760   81.2769 H        71      M_A    0.0000
    502 H         183.0194  151.0136   82.3060 H        71      M_A    0.0000
    503 H         183.6553  149.3555   83.8476 H        71      M_A    0.0000
    504 H         185.2155  149.9957   83.3516 H        71      M_A    0.0000
    505 C         184.8455  147.2420   83.5731 C.3      72      M_A    0.0000
    506 C         186.1260  147.3930   84.3890 C.3      72      M_A    0.0000
    507 O         187.0430  146.3434   84.0800 O.3      72      M_A    0.0000
    508 H         184.7580  146.2323   83.1579 H        72      M_A    0.0000
    509 H         183.9844  147.4056   84.2311 H        72      M_A    0.0000
    510 H         185.8912  147.4155   85.4630 H        72      M_A    0.0000
    511 H         186.6259  148.3431   84.1629 H        72      M_A    0.0000
    512 C         188.3598  146.6754   84.4708 C.3      73      M_A    0.0000
    513 C         189.2856  145.4626   84.4575 C.3      73      M_A    0.0000
    514 O         189.2653  144.8037   85.7238 O.3      73      M_A    0.0000
    515 H         188.3319  147.1406   85.4619 H        73      M_A    0.0000
    516 H         188.7427  147.4215   83.7650 H        73      M_A    0.0000
    517 H         190.3055  145.7667   84.1813 H        73      M_A    0.0000
    518 H         188.9664  144.7333   83.7026 H        73      M_A    0.0000
    519 C         190.3869  143.9594   85.8855 C.3      74      M_A    0.0000
    520 C         190.1159  142.5430   85.3870 C.3      74      M_A    0.0000
    521 O         190.4272  141.5874   86.4009 O.3      74      M_A    0.0000
    522 H         190.6837  143.9574   86.9397 H        74      M_A    0.0000
    523 H         191.2156  144.3858   85.3086 H        74      M_A    0.0000
    524 H         190.6853  142.3492   84.4666 H        74      M_A    0.0000
    525 H         189.0577  142.4138   85.1276 H        74      M_A    0.0000
    526 C         190.8459  140.3587   85.8426 C.3      75      M_A    0.0000
    527 C         189.9846  139.1907   86.3138 C.3      75      M_A    0.0000
    528 O         190.7720  138.0066   86.4385 O.3      75      M_A    0.0000
    529 H         191.9009  140.1960   86.0875 H        75      M_A    0.0000
    530 H         190.7675  140.4398   84.7524 H        75      M_A    0.0000
    531 H         189.1409  139.0393   85.6252 H        75      M_A    0.0000
    532 H         189.5457  139.3985   87.2977 H        75      M_A    0.0000
    533 C         191.5131  137.7521   85.2626 C.3      76      M_A    0.0000
    534 C         192.1037  136.3452   85.2493 C.3      76      M_A    0.0000
    535 O         193.5194  136.3951   85.4253 O.3      76      M_A    0.0000
    536 H         192.2967  138.5107   85.1628 H        76      M_A    0.0000
    537 H         190.8360  137.8604   84.4075 H        76      M_A    0.0000
    538 H         191.8346  135.8295   84.3162 H        76      M_A    0.0000
    539 H         191.6922  135.7390   86.0660 H        76      M_A    0.0000
    540 C         194.1293  135.1737   85.0603 C.3      77      M_A    0.0000
    541 C         195.1001  134.6754   86.1268 C.3      77      M_A    0.0000
    542 O         196.1617  133.9314   85.5289 O.3      77      M_A    0.0000
    543 H         194.6324  135.2998   84.0957 H        77      M_A    0.0000
    544 H         193.3370  134.4283   84.9260 H        77      M_A    0.0000
    545 H         194.5647  134.0759   86.8770 H        77      M_A    0.0000
    546 H         195.5524  135.5152   86.6691 H        77      M_A    0.0000
    547 C         197.3666  134.0767   86.2527 C.3      78      M_A    0.0000
    548 C         198.3365  132.9286   85.9895 C.3      78      M_A    0.0000
    549 O         198.1875  131.9107   86.9793 O.3      78      M_A    0.0000
    550 H         197.1346  134.1615   87.3197 H        78      M_A    0.0000
    551 H         197.8363  135.0164   85.9399 H        78      M_A    0.0000
    552 H         199.3692  133.3045   85.9548 H        78      M_A    0.0000
    553 H         198.1434  132.4677   85.0127 H        78      M_A    0.0000
    554 C         198.7900  130.6996   86.5706 C.3      79      M_A    0.0000
    555 C         197.9236  129.9349   85.5742 C.3      79      M_A    0.0000
    556 O         198.1275  128.5285   85.7099 O.3      79      M_A    0.0000
    557 H         199.0056  130.0913   87.4554 H        79      M_A    0.0000
    558 H         199.7468  130.9431   86.0946 H        79      M_A    0.0000
    559 H         198.1355  130.2727   84.5496 H        79      M_A    0.0000
    560 H         196.8583  130.1308   85.7491 H        79      M_A    0.0000
    561 C         199.4796  128.2265   85.9882 C.3      80      M_A    0.0000
    562 C         199.9726  127.0186   85.1970 C.3      80      M_A    0.0000
    563 O         200.0194  125.8600   86.0298 O.3      80      M_A    0.0000
    564 H         199.5958  128.0676   87.0656 H        80      M_A    0.0000
    565 H         200.0831  129.0996   85.7150 H        80      M_A    0.0000
    566 H         200.9555  127.2315   84.7526 H        80      M_A    0.0000
    567 H         199.2983  126.7951   84.3609 H        80      M_A    0.0000
    568 C         200.7978  124.8349   85.4465 C.3      81      M_A    0.0000
    569 C         199.9903  123.5608   85.2173 C.3      81      M_A    0.0000
    570 O         200.7768  122.4085   85.5201 O.3      81      M_A    0.0000
    571 H         201.6687  124.6421   86.0820 H        81      M_A    0.0000
    572 H         201.1664  125.1997   84.4809 H        81      M_A    0.0000
    573 H         199.6164  123.5292   84.1838 H        81      M_A    0.0000
    574 H         199.1058  123.5345   85.8659 H        81      M_A    0.0000
    575 C         202.0742  122.5085   84.9692 C.3      82      M_A    0.0000
    576 C         202.4006  121.3336   84.0520 C.3      82      M_A    0.0000
    577 O         203.1602  120.3483   84.7520 O.3      82      M_A    0.0000
    578 H         202.8028  122.5891   85.7829 H        82      M_A    0.0000
    579 H         202.1228  123.4364   84.3878 H        82      M_A    0.0000
    580 H         202.9325  121.6872   83.1570 H        82      M_A    0.0000
    581 H         201.4839  120.8486   83.6940 H        82      M_A    0.0000
    582 C         203.7782  119.4423   83.8608 C.3      83      M_A    0.0000
    583 C         203.5303  117.9894   84.2556 C.3      83      M_A    0.0000
    584 O         204.7523  117.2515   84.2415 O.3      83      M_A    0.0000
    585 H         204.8502  119.6619   83.8143 H        83      M_A    0.0000
    586 H         203.3609  119.6145   82.8621 H        83      M_A    0.0000
    587 H         202.7824  117.5372   83.5884 H        83      M_A    0.0000
    588 H         203.1182  117.9231   85.2702 H        83      M_A    0.0000
    589 C         204.5463  115.9028   84.6096 C.3      84      M_A    0.0000
    590 C         204.9062  114.9388   83.4830 C.3      84      M_A    0.0000
    591 O         204.0286  113.8128   83.4884 O.3      84      M_A    0.0000
    592 H         203.5050  115.7731   84.9234 H        84      M_A    0.0000
    593 H         205.1826  115.6890   85.4760 H        84      M_A    0.0000
    594 H         205.9569  114.6272   83.5713 H        84      M_A    0.0000
    595 H         204.8102  115.4253   82.5043 H        84      M_A    0.0000
    596 C         204.2050  113.0251   84.6482 C.3      85      M_A    0.0000
    597 C         203.7191  111.5926   84.4487 C.3      85      M_A    0.0000
    598 O         203.5641  110.9369   85.7073 O.3      85      M_A    0.0000
    599 H         203.6893  113.5042   85.4874 H        85      M_A    0.0000
    600 H         205.2752  113.0070   84.8837 H        85      M_A    0.0000
    601 H         204.4125  111.0443   83.7949 H        85      M_A    0.0000
    602 H         202.7436  111.5752   83.9469 H        85      M_A    0.0000
    603 C         202.8824  109.7068   85.5691 C.3      86      M_A    0.0000
    604 C         203.7598  108.5181   85.9501 C.3      86      M_A    0.0000
    605 O         204.1289  107.7756   84.7881 O.3      86      M_A    0.0000
    606 H         202.5165  109.6145   84.5409 H        86      M_A    0.0000
    607 H         202.0090  109.7294   86.2309 H        86      M_A    0.0000
    608 H         203.2411  107.8828   86.6825 H        86      M_A    0.0000
    609 H         204.6859  108.8529   86.4339 H        86      M_A    0.0000
    610 C         205.0869  106.7822   85.0917 C.3      87      M_A    0.0000
    611 C         206.0030  106.4870   83.9078 C.3      87      M_A    0.0000
    612 O         205.7245  105.1945   83.3695 O.3      87      M_A    0.0000
    613 H         204.5692  105.8769   85.4263 H        87      M_A    0.0000
    614 H         205.6948  107.1448   85.9286 H        87      M_A    0.0000
    615 H         207.0561  106.5752   84.2115 H        87      M_A    0.0000
    616 H         205.8522  107.2174   83.1031 H        87      M_A    0.0000
    617 C         205.4903  104.2478   84.3922 C.3      88      M_A    0.0000
    618 C         206.2593  102.9504   84.1606 C.3      88      M_A    0.0000
    619 O         205.5316  102.0863   83.2878 O.3      88      M_A    0.0000
    620 H         204.4136  104.0613   84.4667 H        88      M_A    0.0000
    621 H         205.8167  104.6889   85.3409 H        88      M_A    0.0000
    622 H         206.4742  102.4601   85.1210 H        88      M_A    0.0000
    623 H         207.2311  103.1485   83.6915 H        88      M_A    0.0000
    624 C         206.3016  100.9623   82.9129 C.3      89      M_A    0.0000
    625 C         207.4503  101.3380   81.9816 C.3      89      M_A    0.0000
    626 O         207.9854  100.1739   81.3519 O.3      89      M_A    0.0000
    627 H         205.6450  100.2176   82.4503 H        89      M_A    0.0000
    628 H         206.7156  100.5179   83.8252 H        89      M_A    0.0000
    629 H         208.2261  101.8844   82.5372 H        89      M_A    0.0000
    630 H         207.1072  102.0128   81.1874 H        89      M_A    0.0000
    631 C         208.9380  100.5117   80.3643 C.3      90      M_A    0.0000
    632 C         210.1877   99.6406   80.4504 C.3      90      M_A    0.0000
    633 O         211.3205  100.4259   80.8221 O.3      90      M_A    0.0000
    634 H         209.1890  101.5736   80.4584 H        90      M_A    0.0000
    635 H         208.4718  100.3670   79.3830 H        90      M_A    0.0000
    636 H         210.3561   99.1230   79.4950 H        90      M_A    0.0000
    637 H         210.0684   98.8567   81.2086 H        90      M_A    0.0000
    638 C         212.2682   99.6602   81.5378 C.3      91      M_A    0.0000
    639 C         213.5287   99.3960   80.7196 C.3      91      M_A    0.0000
    640 O         213.8708   98.0107   80.7607 O.3      91      M_A    0.0000
    641 H         211.8015   98.7228   81.8587 H        91      M_A    0.0000
    642 H         212.5417  100.2199   82.4396 H        91      M_A    0.0000
    643 H         214.3556  100.0230   81.0832 H        91      M_A    0.0000
    644 H         213.3773   99.6659   79.6670 H        91      M_A    0.0000
    645 C         214.9228   97.7109   79.8660 C.3      92      M_A    0.0000
    646 C         215.1309   96.2077   79.7075 C.3      92      M_A    0.0000
    647 O         215.1730   95.8512   78.3259 O.3      92      M_A    0.0000
    648 H         215.8380   98.2023   80.2130 H        92      M_A    0.0000
    649 H         214.6669   98.1383   78.8897 H        92      M_A    0.0000
    650 H         214.3412   95.6571   80.2387 H        92      M_A    0.0000
    651 H         216.0812   95.8934   80.1570 H        92      M_A    0.0000
    652 C         214.6655   94.5499   78.1118 C.3      93      M_A    0.0000
    653 C         215.1827   93.5545   79.1461 C.3      93      M_A    0.0000
    654 O         214.8602   92.2186   78.7600 O.3      93      M_A    0.0000
    655 H         214.9180   94.2306   77.0950 H        93      M_A    0.0000
    656 H         213.5728   94.5986   78.1821 H        93      M_A    0.0000
    657 H         214.7755   93.7931   80.1392 H        93      M_A    0.0000
    658 H         216.2743   93.6155   79.2380 H        93      M_A    0.0000
    659 C         213.6136   91.8140   79.2885 C.3      94      M_A    0.0000
    660 C         213.4146   90.3039   79.1982 C.3      94      M_A    0.0000
    661 O         212.4753   89.9833   78.1721 O.3      94      M_A    0.0000
    662 H         212.8136   92.3501   78.7669 H        94      M_A    0.0000
    663 H         213.5812   92.1136   80.3422 H        94      M_A    0.0000
    664 H         213.0954   89.9044   80.1716 H        94      M_A    0.0000
    665 H         214.3563   89.7979   78.9514 H        94      M_A    0.0000
    666 C         212.9055   88.8778   77.4043 C.3      95      M_A    0.0000
    667 C         212.2332   87.5794   77.8405 C.3      95      M_A    0.0000
    668 O         213.2074   86.6380   78.2906 O.3      95      M_A    0.0000
    669 H         213.9959   88.7998   77.4698 H        95      M_A    0.0000
    670 H         212.6497   89.0751   76.3569 H        95      M_A    0.0000
    671 H         211.6308   87.1688   77.0174 H        95      M_A    0.0000
    672 H         211.5392   87.7566   78.6715 H        95      M_A    0.0000
    673 C         214.1585   86.3567   77.2839 C.3      96      M_A    0.0000
    674 C         214.6838   84.9270   77.3738 C.3      96      M_A    0.0000
    675 O         216.0128   84.8488   76.8587 O.3      96      M_A    0.0000
    676 H         214.9754   87.0830   77.3512 H        96      M_A    0.0000
    677 H         213.6713   86.4950   76.3119 H        96      M_A    0.0000
    678 H         214.0083   84.2405   76.8434 H        96      M_A    0.0000
    679 H         214.7147   84.5849   78.4158 H        96      M_A    0.0000
    680 C         216.2824   83.5728   76.3147 C.3      97      M_A    0.0000
    681 C         215.7192   82.4492   77.1797 C.3      97      M_A    0.0000
    682 O         216.5410   81.2857   77.0862 O.3      97      M_A    0.0000
    683 H         217.3637   83.4633   76.1791 H        97      M_A    0.0000
    684 H         215.8176   83.5241   75.3233 H        97      M_A    0.0000
    685 H         214.6816   82.2303   76.8892 H        97      M_A    0.0000
    686 H         215.6876   82.7449   78.2358 H        97      M_A    0.0000
    687 C         215.9788   80.3238   76.2169 C.3      98      M_A    0.0000
    688 C         216.4703   78.9130   76.5267 C.3      98      M_A    0.0000
    689 O         216.3862   78.0874   75.3652 O.3      98      M_A    0.0000
    690 H         216.2040   80.6026   75.1819 H        98      M_A    0.0000
    691 H         214.8900   80.3548   76.3390 H        98      M_A    0.0000
    692 H         215.8975   78.4865   77.3627 H        98      M_A    0.0000
    693 H         217.5199   78.9242   76.8464 H        98      M_A    0.0000
    694 C         215.0774   77.5881   75.1792 C.3      99      M_A    0.0000
    695 C         214.9179   76.1751   75.7327 C.3      99      M_A    0.0000
    696 O         214.9169   75.2194   74.6723 O.3      99      M_A    0.0000
    697 H         214.8288   77.6255   74.1132 H        99      M_A    0.0000
    698 H         214.3844   78.2550   75.7048 H        99      M_A    0.0000
    699 H         214.0008   76.1049   76.3352 H        99      M_A    0.0000
    700 H         215.7477   75.9204   76.4037 H        99      M_A    0.0000
    701 C         215.3210   73.9435   75.1256 C.3     100      M_A    0.0000
    702 C         214.8543   72.8288   74.1940 C.3     100      M_A    0.0000
    703 O         214.6027   71.6327   74.9315 O.3     100      M_A    0.0000
    704 H         214.9464   73.7907   76.1434 H       100      M_A    0.0000
    705 H         216.4160   73.9329   75.1703 H       100      M_A    0.0000
    706 H         215.5973   72.6609   73.4011 H       100      M_A    0.0000
    707 H         213.9209   73.1052   73.6880 H       100      M_A    0.0000
    708 C         213.8009   70.7307   74.1962 C.3     101      M_A    0.0000
    709 C         214.5562   69.4555   73.8336 C.3     101      M_A    0.0000
    710 O         214.4908   69.2178   72.4275 O.3     101      M_A    0.0000
    711 H         213.4247   71.2357   73.3002 H       101      M_A    0.0000
    712 H         212.9361   70.4666   74.8156 H       101      M_A    0.0000
    713 H         214.1570   68.6033   74.4022 H       101      M_A    0.0000
    714 H         215.6164   69.5368   74.1040 H       101      M_A    0.0000
    715 C         215.1339   68.0093   72.0768 C.3     102      M_A    0.0000
    716 C         214.5902   67.4262   70.7758 C.3     102      M_A    0.0000
    717 O         214.2639   66.0466   70.9435 O.3     102      M_A    0.0000
    718 H         215.0312   67.2972   72.9025 H       102      M_A    0.0000
    719 H         216.2021   68.2200   71.9518 H       102      M_A    0.0000
    720 H         215.3167   67.5694   69.9630 H       102      M_A    0.0000
    721 H         213.6745   67.9449   70.4656 H       102      M_A    0.0000
    722 C         213.5155   65.5555   69.8501 C.3     103      M_A    0.0000
    723 C         213.0008   64.1403   70.0960 C.3     103      M_A    0.0000
    724 O         213.6027   63.2232   69.1825 O.3     103      M_A    0.0000
    725 H         214.1320   65.6005   68.9460 H       103      M_A    0.0000
    726 H         212.6592   66.2233   69.7008 H       103      M_A    0.0000
    727 H         211.9040   64.1171   70.0215 H       103      M_A    0.0000
    728 H         213.2479   63.8034   71.1104 H       103      M_A    0.0000
    729 C         213.2839   61.8854   69.5074 C.3     104      M_A    0.0000
    730 C         212.4731   61.2052   68.4083 C.3     104      M_A    0.0000
    731 O         211.5087   60.3177   68.9742 O.3     104      M_A    0.0000
    732 H         212.7481   61.8675   70.4625 H       104      M_A    0.0000
    733 H         214.2240   61.3387   69.6445 H       104      M_A    0.0000
    734 H         213.1428   60.6778   67.7138 H       104      M_A    0.0000
    735 H         211.9273   61.9442   67.8086 H       104      M_A    0.0000
    736 C         212.1254   59.3101   69.7497 C.3     105      M_A    0.0000
    737 C         211.6106   57.9179   69.3964 C.3     105      M_A    0.0000
    738 O         211.6748   57.0571   70.5334 O.3     105      M_A    0.0000
    739 H         211.9707   59.5312   70.8111 H       105      M_A    0.0000
    740 H         213.2036   59.3489   69.5568 H       105      M_A    0.0000
    741 H         212.1797   57.5062   68.5505 H       105      M_A    0.0000
    742 H         210.5629   57.9571   69.0728 H       105      M_A    0.0000
    743 C         212.9741   56.5306   70.7108 C.3     106      M_A    0.0000
    744 C         213.3598   55.5650   69.5942 C.3     106      M_A    0.0000
    745 O         212.8011   54.2735   69.8342 O.3     106      M_A    0.0000
    746 H         213.0323   56.0452   71.6909 H       106      M_A    0.0000
    747 H         213.6799   57.3692   70.7139 H       106      M_A    0.0000
    748 H         214.4538   55.5155   69.4963 H       106      M_A    0.0000
    749 H         212.9793   55.9127   68.6256 H       106      M_A    0.0000
    750 C         211.4438   54.3603   70.2177 C.3     107      M_A    0.0000
    751 C         210.5372   53.5321   69.3119 C.3     107      M_A    0.0000
    752 O         209.5716   52.8205   70.0859 O.3     107      M_A    0.0000
    753 H         211.1409   55.4128   70.2244 H       107      M_A    0.0000
    754 H         211.3588   53.9843   71.2437 H       107      M_A    0.0000
    755 H         211.1386   52.8483   68.6959 H       107      M_A    0.0000
    756 H         209.9883   54.1749   68.6123 H       107      M_A    0.0000
    757 C         209.1863   51.6173   69.4529 C.3     108      M_A    0.0000
    758 C         209.6161   50.3874   70.2471 C.3     108      M_A    0.0000
    759 O         210.0471   49.3491   69.3674 O.3     108      M_A    0.0000
    760 H         209.6008   51.5981   68.4393 H       108      M_A    0.0000
    761 H         208.0938   51.6180   69.3642 H       108      M_A    0.0000
    762 H         208.7950   50.0478   70.8947 H       108      M_A    0.0000
    763 H         210.4558   50.6237   70.9127 H       108      M_A    0.0000
    764 C         208.9496   48.6627   68.8006 C.3     109      M_A    0.0000
    765 C         209.3902   47.4553   67.9783 C.3     109      M_A    0.0000
    766 O         208.9639   47.5906   66.6226 O.3     109      M_A    0.0000
    767 H         208.3654   49.3625   68.1936 H       109      M_A    0.0000
    768 H         208.3078   48.3187   69.6198 H       109      M_A    0.0000
    769 H         209.0049   46.5288   68.4280 H       109      M_A    0.0000
    770 H         210.4834   47.3629   67.9712 H       109      M_A    0.0000
    771 C         209.4371   46.5259   65.8230 C.3     110      M_A    0.0000
    772 C         208.7629   46.4919   64.4546 C.3     110      M_A    0.0000
    773 O         207.8192   45.4229   64.3881 O.3     110      M_A    0.0000
    774 H         209.2896   45.5828   66.3599 H       110      M_A    0.0000
    775 H         210.5156   46.6628   65.6835 H       110      M_A    0.0000
    776 H         209.5191   46.4078   63.6609 H       110      M_A    0.0000
    777 H         208.2172   47.4242   64.2626 H       110      M_A    0.0000
    778 C         207.0694   45.4686   63.1912 C.3     111      M_A    0.0000
    779 C         205.6374   44.9815   63.3918 C.3     111      M_A    0.0000
    780 O         205.2655   44.0785   62.3506 O.3     111      M_A    0.0000
    781 H         207.5837   44.8792   62.4246 H       111      M_A    0.0000
    782 H         207.0451   46.5093   62.8483 H       111      M_A    0.0000
    783 H         204.9491   45.8375   63.4435 H       111      M_A    0.0000
    784 H         205.5347   44.4457   64.3436 H       111      M_A    0.0000
    785 C         205.1881   44.7335   61.1009 C.3     112      M_A    0.0000
    786 C         204.0436   44.2013   60.2435 C.3     112      M_A    0.0000
    787 O         204.5361   43.2903   59.2610 O.3     112      M_A    0.0000
    788 H         206.1487   44.6329   60.5846 H       112      M_A    0.0000
    789 H         205.0233   45.8006   61.2894 H       112      M_A    0.0000
    790 H         203.4985   45.0351   59.7782 H       112      M_A    0.0000
    791 H         203.3128   43.6595   60.8568 H       112      M_A    0.0000
    792 C         203.4803   42.6461   58.5775 C.3     113      M_A    0.0000
    793 C         202.5081   41.9639   59.5354 C.3     113      M_A    0.0000
    794 O         201.8295   40.8922   58.8805 O.3     113      M_A    0.0000
    795 H         203.9010   41.9293   57.8643 H       113      M_A    0.0000
    796 H         202.9377   43.4057   58.0031 H       113      M_A    0.0000
    797 H         201.7976   42.6980   59.9417 H       113      M_A    0.0000
    798 H         203.0386   41.5392   60.3967 H       113      M_A    0.0000
    799 C         201.4057   41.2634   57.5846 C.3     114      M_A    0.0000
    800 C         200.1952   40.4571   57.1234 C.3     114      M_A    0.0000
    801 O         200.6120   39.2707   56.4478 O.3     114      M_A    0.0000
    802 H         202.2439   41.1512   56.8886 H       114      M_A    0.0000
    803 H         201.1357   42.3254   57.6097 H       114      M_A    0.0000
    804 H         199.5487   41.0753   56.4840 H       114      M_A    0.0000
    805 H         199.5797   40.1495   57.9780 H       114      M_A    0.0000
    806 C         199.5542   38.6998   55.7049 C.3     115      M_A    0.0000
    807 C         199.1517   37.3285   56.2396 C.3     115      M_A    0.0000
    808 O         198.7719   36.4652   55.1680 O.3     115      M_A    0.0000
    809 H         199.8475   38.6427   54.6513 H       115      M_A    0.0000
    810 H         198.6925   39.3737   55.7730 H       115      M_A    0.0000
    811 H         198.3422   37.4312   56.9766 H       115      M_A    0.0000
    812 H         199.9882   36.8512   56.7653 H       115      M_A    0.0000
    813 C         198.1805   37.1872   54.1070 C.3     116      M_A    0.0000
    814 C         196.6853   36.9083   53.9861 C.3     116      M_A    0.0000
    815 O         196.4473   35.8463   53.0623 O.3     116      M_A    0.0000
    816 H         198.7041   36.9467   53.1756 H       116      M_A    0.0000
    817 H         198.3272   38.2555   54.3033 H       116      M_A    0.0000
    818 H         196.1514   37.8229   53.6902 H       116      M_A    0.0000
    819 H         196.2633   36.6041   54.9521 H       116      M_A    0.0000
    820 C         195.2424   35.1679   53.3533 C.3     117      M_A    0.0000
    821 C         194.5659   34.6335   52.0944 C.3     117      M_A    0.0000
    822 O         193.3077   35.2766   51.8911 O.3     117      M_A    0.0000
    823 H         194.5771   35.8413   53.9041 H       117      M_A    0.0000
    824 H         195.4809   34.3253   54.0125 H       117      M_A    0.0000
    825 H         194.4512   33.5419   52.1594 H       117      M_A    0.0000
    826 H         195.1806   34.8263   51.2064 H       117      M_A    0.0000
    827 C         192.7482   34.9342   50.6394 C.3     118      M_A    0.0000
    828 C         191.2801   34.5355   50.7565 C.3     118      M_A    0.0000
    829 O         191.0030   33.3998   49.9372 O.3     118      M_A    0.0000
    830 H         193.3415   34.1305   50.1906 H       118      M_A    0.0000
    831 H         192.8267   35.8096   49.9845 H       118      M_A    0.0000
    832 H         190.6339   35.3854   50.4937 H       118      M_A    0.0000
    833 H         191.0280   34.2647   51.7894 H       118      M_A    0.0000
    834 C         191.4066   33.6157   48.6002 C.3     119      M_A    0.0000
    835 C         190.2719   33.3674   47.6108 C.3     119      M_A    0.0000
    836 O         190.2748   32.0073   47.1771 O.3     119      M_A    0.0000
    837 H         192.2696   32.9784   48.3801 H       119      M_A    0.0000
    838 H         191.7330   34.6582   48.5110 H       119      M_A    0.0000
    839 H         190.3526   34.0587   46.7596 H       119      M_A    0.0000
    840 H         189.2969   33.5622   48.0746 H       119      M_A    0.0000
    841 C         189.0329   31.6426   46.6102 C.3     120      M_A    0.0000
    842 C         188.9957   30.1715   46.2070 C.3     120      M_A    0.0000
    843 O         188.2739   30.0051   44.9866 O.3     120      M_A    0.0000
    844 H         188.8265   32.2927   45.7533 H       120      M_A    0.0000
    845 H         188.2540   31.8246   47.3595 H       120      M_A    0.0000
    846 H         188.5591   29.5673   47.0153 H       120      M_A    0.0000
    847 H         190.0089   29.7831   46.0449 H       120      M_A    0.0000
    848 C         186.8855   29.8825   45.2195 C.3     121      M_A    0.0000
    849 C         186.1155   29.5592   43.9425 C.3     121      M_A    0.0000
    850 O         184.8421   30.2043   43.9490 O.3     121      M_A    0.0000
    851 H         186.5175   30.8055   45.6800 H       121      M_A    0.0000
    852 H         186.7350   29.0699   45.9395 H       121      M_A    0.0000
    853 H         186.0117   28.4707   43.8272 H       121      M_A    0.0000
    854 H         186.6582   29.9124   43.0568 H       121      M_A    0.0000
    855 C         184.0101   29.7170   42.9160 C.3     122      M_A    0.0000
    856 C         182.5470   30.0924   43.1318 C.3     122      M_A    0.0000
    857 O         181.6892   29.1679   42.4631 O.3     122      M_A    0.0000
    858 H         184.1326   28.6313   42.8406 H       122      M_A    0.0000
    859 H         184.3531   30.1556   41.9719 H       122      M_A    0.0000
    860 H         182.3657   31.1228   42.7935 H       122      M_A    0.0000
    861 H         182.2887   30.0683   44.1979 H       122      M_A    0.0000
    862 C         181.3614   29.6138   41.1629 C.3     123      M_A    0.0000
    863 C         180.4686   30.8508   41.1882 C.3     123      M_A    0.0000
    864 O         179.3595   30.6857   40.3048 O.3     123      M_A    0.0000
    865 H         180.8860   28.7943   40.6133 H       123      M_A    0.0000
    866 H         182.2957   29.8614   40.6461 H       123      M_A    0.0000
    867 H         181.0534   31.7462   40.9329 H       123      M_A    0.0000
    868 H         180.0648   31.0231   42.1937 H       123      M_A    0.0000
    869 C         179.0726   31.8800   39.6060 C.3     124      M_A    0.0000
    870 C         177.5746   32.0719   39.3880 C.3     124      M_A    0.0000
    871 O         177.3332   32.7952   38.1812 O.3     124      M_A    0.0000
    872 H         179.6133   31.8755   38.6536 H       124      M_A    0.0000
    873 H         179.4546   32.7181   40.2001 H       124      M_A    0.0000
    874 H         177.1269   32.5792   40.2546 H       124      M_A    0.0000
    875 H         177.0638   31.1050   39.2993 H       124      M_A    0.0000
    876 C         176.0486   32.5191   37.6609 C.3     125      M_A    0.0000
    877 C         175.1238   33.7300   37.7423 C.3     125      M_A    0.0000
    878 O         173.7838   33.3190   38.0127 O.3     125      M_A    0.0000
    879 H         175.6243   31.6611   38.1932 H       125      M_A    0.0000
    880 H         176.1654   32.2322   36.6096 H       125      M_A    0.0000
    881 H         175.1828   34.3157   36.8137 H       125      M_A    0.0000
    882 H         175.4303   34.4043   38.5518 H       125      M_A    0.0000
    883 C         172.8610   34.3554   37.7457 C.3     126      M_A    0.0000
    884 C         171.6735   33.8683   36.9207 C.3     126      M_A    0.0000
    885 O         171.1692   34.9214   36.0993 O.3     126      M_A    0.0000
    886 H         173.3820   35.1767   37.2421 H       126      M_A    0.0000
    887 H         172.4937   34.7352   38.7060 H       126      M_A    0.0000
    888 H         170.8915   33.4671   37.5813 H       126      M_A    0.0000
    889 H         171.9677   33.0460   36.2567 H       126      M_A    0.0000
    890 C         170.8662   36.0720   36.8615 C.3     127      M_A    0.0000
    891 C         169.7958   36.9342   36.1989 C.3     127      M_A    0.0000
    892 O         169.7709   38.2370   36.7819 O.3     127      M_A    0.0000
    893 H         171.7860   36.6426   37.0283 H       127      M_A    0.0000
    894 H         170.4994   35.7411   37.8399 H       127      M_A    0.0000
    895 H         168.8143   36.4441   36.2730 H       127      M_A    0.0000
    896 H         169.9985   37.0574   35.1277 H       127      M_A    0.0000
    897 C         169.0149   39.1392   35.9999 C.3     128      M_A    0.0000
    898 C         169.7237   39.5050   34.6992 C.3     128      M_A    0.0000
    899 O         168.8542   40.2519   33.8483 O.3     128      M_A    0.0000
    900 H         168.7961   40.0319   36.5955 H       128      M_A    0.0000
    901 H         168.0596   38.6585   35.7600 H       128      M_A    0.0000
    902 H         170.0905   38.5974   34.1986 H       128      M_A    0.0000
    903 H         170.6062   40.1271   34.8945 H       128      M_A    0.0000
    904 C         167.5177   39.8051   33.9542 C.3     129      M_A    0.0000
    905 C         167.3571   38.3601   33.4914 C.3     129      M_A    0.0000
    906 O         166.1125   38.1870   32.8139 O.3     129      M_A    0.0000
    907 H         166.8697   40.4777   33.3822 H       129      M_A    0.0000
    908 H         167.2214   39.8752   35.0071 H       129      M_A    0.0000
    909 H         167.4451   37.6755   34.3473 H       129      M_A    0.0000
    910 H         168.1541   38.0813   32.7907 H       129      M_A    0.0000
    911 C         165.1121   37.7014   33.6859 C.3     130      M_A    0.0000
    912 C         163.7082   37.9360   33.1362 C.3     130      M_A    0.0000
    913 O         162.8131   38.2979   34.1877 O.3     130      M_A    0.0000
    914 H         165.2357   38.1704   34.6679 H       130      M_A    0.0000
    915 H         165.2684   36.6239   33.8112 H       130      M_A    0.0000
    916 H         163.3560   37.0424   32.6011 H       130      M_A    0.0000
    917 H         163.7044   38.7543   32.4053 H       130      M_A    0.0000
    918 C         161.5516   37.6813   34.0283 C.3     131      M_A    0.0000
    919 C         160.4630   38.3844   34.8337 C.3     131      M_A    0.0000
    920 O         159.2983   37.5639   34.9239 O.3     131      M_A    0.0000
    921 H         161.6318   36.6258   34.3092 H       131      M_A    0.0000
    922 H         161.2885   37.7224   32.9651 H       131      M_A    0.0000
    923 H         160.2303   39.3611   34.3855 H       131      M_A    0.0000
    924 H         160.8015   38.5880   35.8573 H       131      M_A    0.0000
    925 C         158.1255   38.2969   34.6339 C.3     132      M_A    0.0000
    926 C         156.9041   37.3934   34.4923 C.3     132      M_A    0.0000
    927 O         156.1237   37.7805   33.3614 O.3     132      M_A    0.0000
    928 H         158.2882   38.8868   33.7256 H       132      M_A    0.0000
    929 H         157.9540   38.9983   35.4584 H       132      M_A    0.0000
    930 H         156.3077   37.4141   35.4157 H       132      M_A    0.0000
    931 H         157.2039   36.3486   34.3425 H       132      M_A    0.0000
    932 C         155.0581   36.8802   33.1357 C.3     133      M_A    0.0000
    933 C         153.6967   37.5523   33.2875 C.3     133      M_A    0.0000
    934 O         152.7539   36.6486   33.8638 O.3     133      M_A    0.0000
    935 H         155.1577   36.0301   33.8191 H       133      M_A    0.0000
    936 H         155.1520   36.4964   32.1134 H       133      M_A    0.0000
    937 H         153.3480   37.9272   32.3145 H       133      M_A    0.0000
    938 H         153.7615   38.4254   33.9488 H       133      M_A    0.0000
    939 C         151.4409   36.9148   33.4144 C.3     134      M_A    0.0000
    940 C         150.8166   35.7090   32.7185 C.3     134      M_A    0.0000
    941 O         150.1680   36.1083   31.5111 O.3     134      M_A    0.0000
    942 H         151.4597   37.7873   32.7526 H       134      M_A    0.0000
    943 H         150.8319   37.1745   34.2879 H       134      M_A    0.0000
    944 H         150.1186   35.1983   33.3974 H       134      M_A    0.0000
    945 H         151.5824   34.9701   32.4511 H       134      M_A    0.0000
    946 C         149.1470   35.2013   31.1481 C.3     135      M_A    0.0000
    947 C         148.7007   35.3883   29.7010 C.3     135      M_A    0.0000
    948 O         147.2760   35.3772   29.6113 O.3     135      M_A    0.0000
    949 H         148.3052   35.3154   31.8393 H       135      M_A    0.0000
    950 H         149.5401   34.1853   31.2694 H       135      M_A    0.0000
    951 H         149.1477   34.6126   29.0627 H       135      M_A    0.0000
    952 H         149.0473   36.3509   29.3046 H       135      M_A    0.0000
    953 C         146.8277   36.0002   28.4248 C.3     136      M_A    0.0000
    954 C         145.3403   35.7645   28.1793 C.3     136      M_A    0.0000
    955 O         145.1326   35.1700   26.8981 O.3     136      M_A    0.0000
    956 H         147.4292   35.6405   27.5831 H       136      M_A    0.0000
    957 H         147.0046   37.0774   28.5222 H       136      M_A    0.0000
    958 H         144.7853   36.7086   28.2767 H       136      M_A    0.0000
    959 H         144.9218   35.0822   28.9297 H       136      M_A    0.0000
    960 C         145.1481   36.1390   25.8697 C.3     137      M_A    0.0000
    961 C         143.8698   36.9718   25.8462 C.3     137      M_A    0.0000
    962 O         142.7977   36.2267   25.2688 O.3     137      M_A    0.0000
    963 H         145.3115   35.6384   24.9094 H       137      M_A    0.0000
    964 H         146.0013   36.8040   26.0461 H       137      M_A    0.0000
    965 H         144.0400   37.9131   25.3040 H       137      M_A    0.0000
    966 H         143.5652   37.2522   26.8622 H       137      M_A    0.0000
    967 C         141.7184   36.0901   26.1706 C.3     138      M_A    0.0000
    968 C         140.8097   34.9200   25.8054 C.3     138      M_A    0.0000
    969 O         139.4539   35.3536   25.6985 O.3     138      M_A    0.0000
    970 H         141.1581   37.0306   26.2026 H       138      M_A    0.0000
    971 H         142.1340   35.9177   27.1700 H       138      M_A    0.0000
    972 H         140.9144   34.1130   26.5450 H       138      M_A    0.0000
    973 H         141.0942   34.4893   24.8372 H       138      M_A    0.0000
    974 C         138.7470   34.6071   24.7290 C.3     139      M_A    0.0000
    975 C         137.9016   35.4974   23.8231 C.3     139      M_A    0.0000
    976 O         136.6845   34.8401   23.4700 O.3     139      M_A    0.0000
    977 H         138.1290   33.8581   25.2355 H       139      M_A    0.0000
    978 H         139.4805   34.0716   24.1154 H       139      M_A    0.0000
    979 H         138.4753   35.7835   22.9298 H       139      M_A    0.0000
    980 H         137.6345   36.4328   24.3304 H       139      M_A    0.0000
    981 C         135.7814   35.7267   22.8414 C.3     140      M_A    0.0000
    982 C         134.3351   35.2566   22.9656 C.3     140      M_A    0.0000
    983 O         133.7018   35.2426   21.6862 O.3     140      M_A    0.0000
    984 H         136.0697   35.8456   21.7915 H       140      M_A    0.0000
    985 H         135.8787   36.7056   23.3247 H       140      M_A    0.0000
    986 H         133.7885   35.8939   23.6754 H       140      M_A    0.0000
    987 H         134.2870   34.2366   23.3670 H       140      M_A    0.0000
    988 C         132.4138   35.8213   21.7404 C.3     141      M_A    0.0000
    989 C         131.3613   34.9435   21.0696 C.3     141      M_A    0.0000
    990 O         130.5031   35.7323   20.2456 O.3     141      M_A    0.0000
    991 H         132.4492   36.8157   21.2828 H       141      M_A    0.0000
    992 H         132.1469   35.9513   22.7955 H       141      M_A    0.0000
    993 H         130.7894   34.3899   21.8281 H       141      M_A    0.0000
    994 H         131.8314   34.1889   20.4266 H       141      M_A    0.0000
    995 C         129.1434   35.5325   20.5745 C.3     142      M_A    0.0000
    996 C         128.2059   36.1734   19.5554 C.3     142      M_A    0.0000
    997 O         127.2171   36.9651   20.2137 O.3     142      M_A    0.0000
    998 H         128.9583   35.9216   21.5814 H       142      M_A    0.0000
    999 H         128.9574   34.4526   20.5972 H       142      M_A    0.0000
   1000 H         127.7443   35.3997   18.9252 H       142      M_A    0.0000
   1001 H         128.7578   36.8352   18.8762 H       142      M_A    0.0000
   1002 C         126.1394   37.2686   19.3515 C.3     143      M_A    0.0000
   1003 C         126.6159   37.7746   17.9931 C.3     143      M_A    0.0000
   1004 O         125.7669   38.8216   17.5232 O.3     143      M_A    0.0000
   1005 H         125.4867   38.0005   19.8392 H       143      M_A    0.0000
   1006 H         125.5573   36.3517   19.2040 H       143      M_A    0.0000
   1007 H         126.6624   36.9443   17.2739 H       143      M_A    0.0000
   1008 H         127.6327   38.1813   18.0603 H       143      M_A    0.0000
   1009 C         124.4021   38.4854   17.6685 C.3     144      M_A    0.0000
   1010 C         123.5925   38.8187   16.4188 C.3     144      M_A    0.0000
   1011 O         122.8434   40.0183   16.6131 O.3     144      M_A    0.0000
   1012 H         123.9996   38.9979   18.5487 H       144      M_A    0.0000
   1013 H         124.3387   37.4072   17.8549 H       144      M_A    0.0000
   1014 H         122.9370   37.9762   16.1554 H       144      M_A    0.0000
   1015 H         124.2507   38.9786   15.5557 H       144      M_A    0.0000
   1016 C         123.0770   40.9479   15.5747 C.3     145      M_A    0.0000
   1017 C         121.9366   40.9754   14.5614 C.3     145      M_A    0.0000
   1018 O         122.4453   41.1591   13.2403 O.3     145      M_A    0.0000
   1019 H         124.0304   40.7107   15.0906 H       145      M_A    0.0000
   1020 H         123.1733   41.9415   16.0272 H       145      M_A    0.0000
   1021 H         121.2140   41.7612   14.8245 H       145      M_A    0.0000
   1022 H         121.3803   40.0297   14.5706 H       145      M_A    0.0000
   1023 C         121.9544   42.3494   12.6579 C.3     146      M_A    0.0000
   1024 C         120.4323   42.3515   12.5523 C.3     146      M_A    0.0000
   1025 O         120.0126   43.0588   11.3854 O.3     146      M_A    0.0000
   1026 H         122.4191   42.4845   11.6754 H       146      M_A    0.0000
   1027 H         122.2671   43.1879   13.2906 H       146      M_A    0.0000
   1028 H         119.9893   42.7821   13.4618 H       146      M_A    0.0000
   1029 H         120.0427   41.3288   12.4743 H       146      M_A    0.0000
   1030 C         119.9981   44.4548   11.6041 C.3     147      M_A    0.0000
   1031 C         118.7037   45.0990   11.1165 C.3     147      M_A    0.0000
   1032 O         118.9038   46.4878   10.8540 O.3     147      M_A    0.0000
   1033 H         120.8706   44.9020   11.1158 H       147      M_A    0.0000
   1034 H         120.0963   44.6281   12.6818 H       147      M_A    0.0000
   1035 H         117.9015   44.9425   11.8519 H       147      M_A    0.0000
   1036 H         118.3612   44.6343   10.1835 H       147      M_A    0.0000
   1037 C         117.7786   47.2534   11.2342 C.3     148      M_A    0.0000
   1038 C         117.8341   48.6722   10.6756 C.3     148      M_A    0.0000
   1039 O         117.5439   49.6246   11.6986 O.3     148      M_A    0.0000
   1040 H         117.7045   47.2614   12.3269 H       148      M_A    0.0000
   1041 H         116.8840   46.7539   10.8450 H       148      M_A    0.0000
   1042 H         117.1421   48.7734    9.8272 H       148      M_A    0.0000
   1043 H         118.8339   48.9022   10.2867 H       148      M_A    0.0000
   1044 C         117.0671   50.8386   11.1549 C.3     149      M_A    0.0000
   1045 C         118.2042   51.7657   10.7357 C.3     149      M_A    0.0000
   1046 O         117.8791   53.1233   11.0347 O.3     149      M_A    0.0000
   1047 H         116.4104   51.3236   11.8850 H       149      M_A    0.0000
   1048 H         116.4622   50.5984   10.2731 H       149      M_A    0.0000
   1049 H         118.4269   51.6339    9.6671 H       149      M_A    0.0000
   1050 H         119.1281   51.5227   11.2753 H       149      M_A    0.0000
   1051 C         118.4326   54.0093   10.0831 C.3     150      M_A    0.0000
   1052 C         119.6271   54.7776   10.6406 C.3     150      M_A    0.0000
   1053 O         119.3454   56.1763   10.6863 O.3     150      M_A    0.0000
   1054 H         117.6511   54.6925    9.7341 H       150      M_A    0.0000
   1055 H         118.7629   53.4162    9.2226 H       150      M_A    0.0000
   1056 H         120.5252   54.5700   10.0412 H       150      M_A    0.0000
   1057 H         119.8583   54.4555   11.6637 H       150      M_A    0.0000
   1058 C         120.5301   56.9446   10.6310 C.3     151      M_A    0.0000
   1059 C         120.5869   57.9927   11.7384 C.3     151      M_A    0.0000
   1060 O         120.8021   59.2919   11.1873 O.3     151      M_A    0.0000
   1061 H         120.6087   57.4094    9.6424 H       151      M_A    0.0000
   1062 H         121.3800   56.2621   10.7449 H       151      M_A    0.0000
   1063 H         121.3683   57.7330   12.4670 H       151      M_A    0.0000
   1064 H         119.6432   58.0251   12.2971 H       151      M_A    0.0000
   1065 C         120.8297   60.2829   12.1944 C.3     152      M_A    0.0000
   1066 C         120.8618   61.6927   11.6119 C.3     152      M_A    0.0000
   1067 O         121.7549   62.5214   12.3558 O.3     152      M_A    0.0000
   1068 H         121.6909   60.1051   12.8471 H       152      M_A    0.0000
   1069 H         119.9245   60.1709   12.8022 H       152      M_A    0.0000
   1070 H         119.8477   62.1172   11.5892 H       152      M_A    0.0000
   1071 H         121.2138   61.6803   10.5728 H       152      M_A    0.0000
   1072 C         122.0384   63.7234   11.6691 C.3     153      M_A    0.0000
   1073 C         122.2112   64.9023   12.6223 C.3     153      M_A    0.0000
   1074 O         121.8749   66.1268   11.9700 O.3     153      M_A    0.0000
   1075 H         121.2420   63.9161   10.9423 H       153      M_A    0.0000
   1076 H         122.9700   63.5803   11.1097 H       153      M_A    0.0000
   1077 H         123.2385   64.9266   13.0134 H       153      M_A    0.0000
   1078 H         121.5520   64.8024   13.4936 H       153      M_A    0.0000
   1079 C         122.4305   67.2396   12.6408 C.3     154      M_A    0.0000
   1080 C         122.1402   67.2108   14.1385 C.3     154      M_A    0.0000
   1081 O         122.7494   68.3267   14.7878 O.3     154      M_A    0.0000
   1082 H         122.0513   68.1590   12.1822 H       154      M_A    0.0000
   1083 H         123.5158   67.2169   12.4895 H       154      M_A    0.0000
   1084 H         122.4814   66.2602   14.5730 H       154      M_A    0.0000
   1085 H         121.0615   67.2677   14.3304 H       154      M_A    0.0000
   1086 C         123.8322   67.9238   15.6015 C.3     155      M_A    0.0000
   1087 C         124.0044   68.8289   16.8177 C.3     155      M_A    0.0000
   1088 O         125.3714   68.8618   17.2276 O.3     155      M_A    0.0000
   1089 H         124.7442   67.8980   14.9956 H       155      M_A    0.0000
   1090 H         123.6336   66.9022   15.9451 H       155      M_A    0.0000
   1091 H         123.3497   68.4946   17.6353 H       155      M_A    0.0000
   1092 H         123.7061   69.8590   16.5858 H       155      M_A    0.0000
   1093 C         125.4949   69.2231   18.5881 C.3     156      M_A    0.0000
   1094 C         126.0861   68.0963   19.4300 C.3     156      M_A    0.0000
   1095 O         125.5461   68.1225   20.7513 O.3     156      M_A    0.0000
   1096 H         124.5135   69.5271   18.9676 H       156      M_A    0.0000
   1097 H         126.1572   70.0945   18.6466 H       156      M_A    0.0000
   1098 H         127.1831   68.1691   19.4448 H       156      M_A    0.0000
   1099 H         125.8481   67.1166   18.9973 H       156      M_A    0.0000
   1100 C         124.7664   69.2809   20.9685 C.3     157      M_A    0.0000
   1101 C         125.1078   69.9633   22.2898 C.3     157      M_A    0.0000
   1102 O         123.9218   70.2188   23.0422 O.3     157      M_A    0.0000
   1103 H         123.7058   69.0110   20.9254 H       157      M_A    0.0000
   1104 H         124.9643   69.9792   20.1473 H       157      M_A    0.0000
   1105 H         125.6709   70.8893   22.1043 H       157      M_A    0.0000
   1106 H         125.7560   69.3264   22.9046 H       157      M_A    0.0000
   1107 C         122.7704   70.1725   22.2242 C.3     158      M_A    0.0000
   1108 C         121.6858   71.1321   22.7048 C.3     158      M_A    0.0000
   1109 O         120.4962   70.4167   23.0378 O.3     158      M_A    0.0000
   1110 H         122.3992   69.1428   22.1876 H       158      M_A    0.0000
   1111 H         123.0677   70.4540   21.2076 H       158      M_A    0.0000
   1112 H         121.4910   71.8981   21.9404 H       158      M_A    0.0000
   1113 H         122.0084   71.6702   23.6049 H       158      M_A    0.0000
   1114 C         119.4605   71.2918   23.4357 C.3     159      M_A    0.0000
   1115 C         118.2224   71.1542   22.5546 C.3     159      M_A    0.0000
   1116 O         117.4848   72.3762   22.5336 O.3     159      M_A    0.0000
   1117 H         119.8387   72.3197   23.4283 H       159      M_A    0.0000
   1118 H         119.1897   71.0457   24.4688 H       159      M_A    0.0000
   1119 H         117.6000   70.3174   22.9028 H       159      M_A    0.0000
   1120 H         118.5012   70.9209   21.5194 H       159      M_A    0.0000
   1121 C         116.3875   72.3334   23.4229 C.3     160      M_A    0.0000
   1122 C         115.3517   73.4089   23.1089 C.3     160      M_A    0.0000
   1123 O         114.9205   74.0535   24.3075 O.3     160      M_A    0.0000
   1124 H         116.7560   72.4272   24.4499 H       160      M_A    0.0000
   1125 H         115.9157   71.3486   23.3287 H       160      M_A    0.0000
   1126 H         114.5036   72.9712   22.5630 H       160      M_A    0.0000
   1127 H         115.7739   74.1813   22.4541 H       160      M_A    0.0000
   1128 C         113.6509   74.6523   24.1447 C.3     161      M_A    0.0000
   1129 C         113.7472   76.0424   23.5232 C.3     161      M_A    0.0000
   1130 O         113.1352   77.0136   24.3719 O.3     161      M_A    0.0000
   1131 H         113.1453   74.6875   25.1156 H       161      M_A    0.0000
   1132 H         113.0572   74.0093   23.4850 H       161      M_A    0.0000
   1133 H         113.2924   76.0429   22.5222 H       161      M_A    0.0000
   1134 H         114.7944   76.3395   23.3860 H       161      M_A    0.0000
   1135 C         113.2201   78.3110   23.8185 C.3     162      M_A    0.0000
   1136 C         114.6601   78.8101   23.7436 C.3     162      M_A    0.0000
   1137 O         114.7474   80.1578   24.2063 O.3     162      M_A    0.0000
   1138 H         112.5958   78.9920   24.4067 H       162      M_A    0.0000
   1139 H         112.8049   78.2729   22.8049 H       162      M_A    0.0000
   1140 H         115.0421   78.7142   22.7171 H       162      M_A    0.0000
   1141 H         115.3196   78.2024   24.3757 H       162      M_A    0.0000
   1142 C         116.0833   80.6182   24.2088 C.3     163      M_A    0.0000
   1143 C         116.1678   82.1359   24.0757 C.3     163      M_A    0.0000
   1144 O         117.1351   82.4989   23.0906 O.3     163      M_A    0.0000
   1145 H         116.6347   80.1196   23.4045 H       163      M_A    0.0000
   1146 H         116.5409   80.3197   25.1589 H       163      M_A    0.0000
   1147 H         116.3994   82.5900   25.0499 H       163      M_A    0.0000
   1148 H         115.2046   82.5566   23.7609 H       163      M_A    0.0000
   1149 C         116.6231   82.3472   21.7823 C.3     164      M_A    0.0000
   1150 C         117.2388   83.3446   20.8056 C.3     164      M_A    0.0000
   1151 O         116.5918   84.6128   20.9109 O.3     164      M_A    0.0000
   1152 H         115.5326   82.4445   21.8119 H       164      M_A    0.0000
   1153 H         116.8560   81.3307   21.4450 H       164      M_A    0.0000
   1154 H         117.1861   82.9529   19.7795 H       164      M_A    0.0000
   1155 H         118.3032   83.4998   21.0217 H       164      M_A    0.0000
   1156 C         116.8781   85.4336   19.7969 C.3     165      M_A    0.0000
   1157 C         117.9304   86.4908   20.1180 C.3     165      M_A    0.0000
   1158 O         117.3132   87.7569   20.3502 O.3     165      M_A    0.0000
   1159 H         115.9492   85.8947   19.4446 H       165      M_A    0.0000
   1160 H         117.2549   84.7911   18.9928 H       165      M_A    0.0000
   1161 H         118.6697   86.5493   19.3062 H       165      M_A    0.0000
   1162 H         118.4887   86.2263   21.0247 H       165      M_A    0.0000
   1163 C         118.1721   88.8230   20.0000 C.3     166      M_A    0.0000
   1164 C         118.5582   89.6701   21.2089 C.3     166      M_A    0.0000
   1165 O         118.2008   91.0359   20.9978 O.3     166      M_A    0.0000
   1166 H         117.6893   89.4322   19.2285 H       166      M_A    0.0000
   1167 H         119.0810   88.3939   19.5629 H       166      M_A    0.0000
   1168 H         119.6327   89.5657   21.4179 H       166      M_A    0.0000
   1169 H         118.0345   89.3291   22.1107 H       166      M_A    0.0000
   1170 C         118.8765   91.8923   21.8960 C.3     167      M_A    0.0000
   1171 C         118.0043   93.0631   22.3393 C.3     167      M_A    0.0000
   1172 O         118.7829   94.2548   22.4465 O.3     167      M_A    0.0000
   1173 H         119.8017   92.2439   21.4270 H       167      M_A    0.0000
   1174 H         119.1549   91.3038   22.7778 H       167      M_A    0.0000
   1175 H         117.5041   92.8254   23.2891 H       167      M_A    0.0000
   1176 H         117.2067   93.2562   21.6110 H       167      M_A    0.0000
   1177 C         119.8392   94.1009   23.3724 C.3     168      M_A    0.0000
   1178 C         119.7360   95.0888   24.5306 C.3     168      M_A    0.0000
   1179 O         120.6717   96.1540   24.3648 O.3     168      M_A    0.0000
   1180 H         120.7939   94.2070   22.8463 H       168      M_A    0.0000
   1181 H         119.7920   93.0810   23.7710 H       168      M_A    0.0000
   1182 H         119.8874   94.5689   25.4876 H       168      M_A    0.0000
   1183 H         118.7349   95.5353   24.5777 H       168      M_A    0.0000
   1184 C         120.2378   97.0758   23.3855 C.3     169      M_A    0.0000
   1185 C         120.5570   98.5169   23.7721 C.3     169      M_A    0.0000
   1186 O         119.4549   99.1057   24.4625 O.3     169      M_A    0.0000
   1187 H         119.1640   96.9401   23.2179 H       169      M_A    0.0000
   1188 H         120.7524   96.8381   22.4475 H       169      M_A    0.0000
   1189 H         120.8262   99.0987   22.8788 H       169      M_A    0.0000
   1190 H         121.4252   98.5607   24.4415 H       169      M_A    0.0000
   1191 C         119.7922  100.3725   24.9901 C.3     170      M_A    0.0000
   1192 C         119.1094  100.6372   26.3287 C.3     170      M_A    0.0000
   1193 O         118.1461  101.6830   26.2009 O.3     170      M_A    0.0000
   1194 H         119.5370  101.1446   24.2566 H       170      M_A    0.0000
   1195 H         120.8784  100.3989   25.1347 H       170      M_A    0.0000
   1196 H         119.8593  100.8759   27.0966 H       170      M_A    0.0000
   1197 H         118.5796   99.7440   26.6826 H       170      M_A    0.0000
   1198 C         117.0355  101.4694   27.0481 C.3     171      M_A    0.0000
   1199 C         117.0380  102.4132   28.2470 C.3     171      M_A    0.0000
   1200 O         116.7286  101.7012   29.4451 O.3     171      M_A    0.0000
   1201 H         117.0271  100.4224   27.3693 H       171      M_A    0.0000
   1202 H         116.1260  101.6435   26.4618 H       171      M_A    0.0000
   1203 H         116.3333  103.2405   28.0803 H       171      M_A    0.0000
   1204 H         118.0252  102.8721   28.3833 H       171      M_A    0.0000
   1205 C         115.5622  100.9178   29.2946 C.3     172      M_A    0.0000
   1206 C         114.3955  101.4620   30.1136 C.3     172      M_A    0.0000
   1207 O         113.4437  100.4307   30.3754 O.3     172      M_A    0.0000
   1208 H         115.7892   99.8823   29.5696 H       172      M_A    0.0000
   1209 H         115.2852  100.9260   28.2341 H       172      M_A    0.0000
   1210 H         113.9309  102.3123   29.5938 H       172      M_A    0.0000
   1211 H         114.7404  101.8443   31.0824 H       172      M_A    0.0000
   1212 C         112.5272  100.8156   31.3797 C.3     173      M_A    0.0000
   1213 C         111.1022  100.9249   30.8452 C.3     173      M_A    0.0000
   1214 O         110.3084  101.7467   31.7010 O.3     173      M_A    0.0000
   1215 H         112.8574  101.7619   31.8213 H       173      M_A    0.0000
   1216 H         112.5526  100.0551   32.1685 H       173      M_A    0.0000
   1217 H         110.6619   99.9239   30.7309 H       173      M_A    0.0000
   1218 H         111.0910  101.3821   29.8479 H       173      M_A    0.0000
   1219 C         110.1132  101.1422   32.9633 C.3     174      M_A    0.0000
   1220 C         109.8690  102.1726   34.0617 C.3     174      M_A    0.0000
   1221 O         110.9683  102.2040   34.9719 O.3     174      M_A    0.0000
   1222 H         110.9794  100.5138   33.1963 H       174      M_A    0.0000
   1223 H         109.2379  100.4866   32.8912 H       174      M_A    0.0000
   1224 H         108.9250  101.9560   34.5822 H       174      M_A    0.0000
   1225 H         109.7637  103.1796   33.6390 H       174      M_A    0.0000
   1226 C         110.9917  103.4067   35.7134 C.3     175      M_A    0.0000
   1227 C         111.4199  104.5981   34.8617 C.3     175      M_A    0.0000
   1228 O         111.7395  105.7161   35.6897 O.3     175      M_A    0.0000
   1229 H         111.6525  103.2808   36.5777 H       175      M_A    0.0000
   1230 H         109.9798  103.5880   36.0935 H       175      M_A    0.0000
   1231 H         110.6319  104.8493   34.1372 H       175      M_A    0.0000
   1232 H         112.3145  104.3587   34.2733 H       175      M_A    0.0000
   1233 C         112.9462  105.5090   36.3954 C.3     176      M_A    0.0000
   1234 C         112.8364  105.9324   37.8571 C.3     176      M_A    0.0000
   1235 O         113.0351  107.3401   37.9867 O.3     176      M_A    0.0000
   1236 H         113.7539  106.0468   35.8876 H       176      M_A    0.0000
   1237 H         113.1821  104.4395   36.3528 H       176      M_A    0.0000
   1238 H         113.5545  105.3691   38.4704 H       176      M_A    0.0000
   1239 H         111.8415  105.7028   38.2587 H       176      M_A    0.0000
   1240 C         112.5407  107.8210   39.2201 C.3     177      M_A    0.0000
   1241 C         111.0155  107.8398   39.2590 C.3     177      M_A    0.0000
   1242 O         110.5509  108.7993   40.2086 O.3     177      M_A    0.0000
   1243 H         112.9532  108.8183   39.4061 H       177      M_A    0.0000
   1244 H         112.9074  107.1576   40.0117 H       177      M_A    0.0000
   1245 H         110.6291  106.8353   39.4839 H       177      M_A    0.0000
   1246 H         110.6012  108.1176   38.2818 H       177      M_A    0.0000
   1247 C         111.1467  108.6039   41.4750 C.3     178      M_A    0.0000
   1248 C         110.2238  109.0251   42.6147 C.3     178      M_A    0.0000
   1249 O         110.9531  109.7434   43.6098 O.3     178      M_A    0.0000
   1250 H         112.0951  109.1503   41.5118 H       178      M_A    0.0000
   1251 H         111.3745  107.5369   41.5792 H       178      M_A    0.0000
   1252 H         109.7236  108.1447   43.0432 H       178      M_A    0.0000
   1253 H         109.4268  109.6856   42.2509 H       178      M_A    0.0000
   1254 C         112.3406  109.4926   43.5159 C.3     179      M_A    0.0000
   1255 C         113.0327  109.5787   44.8730 C.3     179      M_A    0.0000
   1256 O         113.6543  110.8532   45.0379 O.3     179      M_A    0.0000
   1257 H         112.7831  110.1947   42.8013 H       179      M_A    0.0000
   1258 H         112.4739  108.4819   43.1135 H       179      M_A    0.0000
   1259 H         113.7608  108.7619   44.9802 H       179      M_A    0.0000
   1260 H         112.3108  109.4572   45.6903 H       179      M_A    0.0000
   1261 C         114.5259  110.8636   46.1501 C.3     180      M_A    0.0000
   1262 C         114.1851  111.9770   47.1362 C.3     180      M_A    0.0000
   1263 O         115.1011  113.0634   47.0005 O.3     180      M_A    0.0000
   1264 H         115.5579  110.9527   45.7945 H       180      M_A    0.0000
   1265 H         114.4332  109.8978   46.6599 H       180      M_A    0.0000
   1266 H         114.1789  111.5852   48.1636 H       180      M_A    0.0000
   1267 H         113.1782  112.3711   46.9507 H       180      M_A    0.0000
   1268 C         114.5886  114.2472   47.5774 C.3     181      M_A    0.0000
   1269 C         115.6337  115.3574   47.6341 C.3     181      M_A    0.0000
   1270 O         115.6745  115.9403   48.9366 O.3     181      M_A    0.0000
   1271 H         114.1996  114.0190   48.5754 H       181      M_A    0.0000
   1272 H         113.7462  114.5844   46.9625 H       181      M_A    0.0000
   1273 H         115.4259  116.1140   46.8638 H       181      M_A    0.0000
   1274 H         116.6353  114.9651   47.4183 H       181      M_A    0.0000
   1275 C         114.6492  116.8977   49.1072 C.3     182      M_A    0.0000
   1276 C         115.1889  118.3248   49.0974 C.3     182      M_A    0.0000
   1277 O         115.5893  118.7175   50.4101 O.3     182      M_A    0.0000
   1278 H         114.1124  116.6845   50.0377 H       182      M_A    0.0000
   1279 H         113.9388  116.7816   48.2807 H       182      M_A    0.0000
   1280 H         114.4358  119.0126   48.6865 H       182      M_A    0.0000
   1281 H         116.0688  118.4073   48.4471 H       182      M_A    0.0000
   1282 C         116.2629  119.9596   50.3956 C.3     183      M_A    0.0000
   1283 C         117.6366  119.8601   49.7389 C.3     183      M_A    0.0000
   1284 O         118.6247  120.5005   50.5460 O.3     183      M_A    0.0000
   1285 H         116.3414  120.3357   51.4212 H       183      M_A    0.0000
   1286 H         115.6495  120.6691   49.8285 H       183      M_A    0.0000
   1287 H         117.6059  120.2905   48.7276 H       183      M_A    0.0000
   1288 H         117.9393  118.8123   49.6187 H       183      M_A    0.0000
   1289 C         118.6305  121.8991   50.3439 C.3     184      M_A    0.0000
   1290 C         119.0441  122.6590   51.6007 C.3     184      M_A    0.0000
   1291 O         117.9918  123.5213   52.0333 O.3     184      M_A    0.0000
   1292 H         117.6398  122.2145   49.9994 H       184      M_A    0.0000
   1293 H         119.3459  122.1211   49.5438 H       184      M_A    0.0000
   1294 H         119.9712  123.2208   51.4167 H       184      M_A    0.0000
   1295 H         119.2613  121.9673   52.4242 H       184      M_A    0.0000
   1296 C         118.2782  124.0956   53.2923 C.3     185      M_A    0.0000
   1297 C         117.3990  125.3081   53.5837 C.3     185      M_A    0.0000
   1298 O         118.1987  126.4233   53.9768 O.3     185      M_A    0.0000
   1299 H         119.3406  124.3591   53.3315 H       185      M_A    0.0000
   1300 H         118.0972  123.3338   54.0592 H       185      M_A    0.0000
   1301 H         116.6531  125.0600   54.3525 H       185      M_A    0.0000
   1302 H         116.8342  125.6070   52.6917 H       185      M_A    0.0000
   1303 C         118.1051  126.6626   55.3664 C.3     186      M_A    0.0000
   1304 C         118.4391  128.1079   55.7238 C.3     186      M_A    0.0000
   1305 O         118.7272  128.2251   57.1171 O.3     186      M_A    0.0000
   1306 H         118.7617  125.9630   55.8945 H       186      M_A    0.0000
   1307 H         117.0757  126.4495   55.6765 H       186      M_A    0.0000
   1308 H         117.6140  128.7721   55.4289 H       186      M_A    0.0000
   1309 H         119.3240  128.4536   55.1751 H       186      M_A    0.0000
   1310 C         117.5490  128.1708   57.8953 C.3     187      M_A    0.0000
   1311 C         117.7562  128.7493   59.2919 C.3     187      M_A    0.0000
   1312 O         117.2116  127.8761   60.2812 O.3     187      M_A    0.0000
   1313 H         117.2008  127.1336   57.9447 H       187      M_A    0.0000
   1314 H         116.7778  128.7551   57.3804 H       187      M_A    0.0000
   1315 H         117.3122  129.7531   59.3566 H       187      M_A    0.0000
   1316 H         118.8241  128.8701   59.5123 H       187      M_A    0.0000
   1317 C         115.8502  128.1615   60.5301 C.3     188      M_A    0.0000
   1318 C         115.4467  127.8293   61.9636 C.3     188      M_A    0.0000
   1319 O         114.6739  126.6296   62.0008 O.3     188      M_A    0.0000
   1320 H         115.2329  127.6152   59.8090 H       188      M_A    0.0000
   1321 H         115.6932  129.2323   60.3567 H       188      M_A    0.0000
   1322 H         114.8984  128.6721   62.4086 H       188      M_A    0.0000
   1323 H         116.3309  127.6701   62.5935 H       188      M_A    0.0000
   1324 C         113.6468  126.7058   62.9684 C.3     189      M_A    0.0000
   1325 C         114.1852  127.0659   64.3500 C.3     189      M_A    0.0000
   1326 O         113.8714  126.0405   65.2923 O.3     189      M_A    0.0000
   1327 H         113.1057  125.7539   62.9908 H       189      M_A    0.0000
   1328 H         112.9406  127.4811   62.6500 H       189      M_A    0.0000
   1329 H         113.7867  128.0392   64.6707 H       189      M_A    0.0000
   1330 H         115.2771  127.1714   64.3306 H       189      M_A    0.0000
   1331 C         113.4682  126.5838   66.5329 C.3     190      M_A    0.0000
   1332 C         113.4644  125.5378   67.6437 C.3     190      M_A    0.0000
   1333 O         112.1888  125.4911   68.2828 O.3     190      M_A    0.0000
   1334 H         112.4802  127.0421   66.4180 H       190      M_A    0.0000
   1335 H         114.1739  127.3795   66.7976 H       190      M_A    0.0000
   1336 H         114.2661  125.7485   68.3661 H       190      M_A    0.0000
   1337 H         113.6672  124.5373   67.2416 H       190      M_A    0.0000
   1338 C         112.0558  126.5151   69.2475 C.3     191      M_A    0.0000
   1339 C         111.8931  125.9571   70.6583 C.3     191      M_A    0.0000
   1340 O         110.7298  126.5021   71.2809 O.3     191      M_A    0.0000
   1341 H         111.2095  127.1547   68.9753 H       191      M_A    0.0000
   1342 H         112.9617  127.1310   69.2122 H       191      M_A    0.0000
   1343 H         112.7961  126.1583   71.2525 H       191      M_A    0.0000
   1344 H         111.7744  124.8665   70.6379 H       191      M_A    0.0000
   1345 C         110.7483  126.2989   72.6792 C.3     192      M_A    0.0000
   1346 C         109.7838  125.1987   73.1123 C.3     192      M_A    0.0000
   1347 O         109.1762  125.5289   74.3612 O.3     192      M_A    0.0000
   1348 H         110.5196  127.2452   73.1809 H       192      M_A    0.0000
   1349 H         111.7664  126.0102   72.9644 H       192      M_A    0.0000
   1350 H         110.3080  124.2337   73.1655 H       192      M_A    0.0000
   1351 H         108.9781  125.0716   72.3785 H       192      M_A    0.0000
   1352 C         108.8388  124.3693   75.0949 C.3     193      M_A    0.0000
   1353 C         107.3290  124.1899   75.2228 C.3     193      M_A    0.0000
   1354 O         106.9478  124.1205   76.5967 O.3     193      M_A    0.0000
   1355 H         109.3159  124.4180   76.0795 H       193      M_A    0.0000
   1356 H         109.2553  123.5036   74.5672 H       193      M_A    0.0000
   1357 H         107.0052  123.2948   74.6723 H       193      M_A    0.0000
   1358 H         106.7937  125.0368   74.7757 H       193      M_A    0.0000
   1359 C         107.1454  122.8242   77.1235 C.3     194      M_A    0.0000
   1360 C         106.1942  121.8028   76.5070 C.3     194      M_A    0.0000
   1361 O         104.9171  121.8611   77.1422 O.3     194      M_A    0.0000
   1362 H         107.0349  122.8603   78.2125 H       194      M_A    0.0000
   1363 H         108.1769  122.5252   76.9048 H       194      M_A    0.0000
   1364 H         106.6270  120.7941   76.5712 H       194      M_A    0.0000
   1365 H         106.0397  122.0044   75.4397 H       194      M_A    0.0000
   1366 C         103.9573  122.4896   76.3173 C.3     195      M_A    0.0000
   1367 C         103.8576  123.9874   76.5910 C.3     195      M_A    0.0000
   1368 O         102.6971  124.2776   77.3700 O.3     195      M_A    0.0000
   1369 H         102.9891  121.9971   76.4563 H       195      M_A    0.0000
   1370 H         104.2590  122.3391   75.2744 H       195      M_A    0.0000
   1371 H         103.8539  124.5468   75.6444 H       195      M_A    0.0000
   1372 H         104.7292  124.3423   77.1551 H       195      M_A    0.0000
   1373 C         102.1447  125.5324   77.0274 C.3     196      M_A    0.0000
   1374 C         101.5095  126.2272   78.2282 C.3     196      M_A    0.0000
   1375 O         100.1148  126.4354   78.0060 O.3     196      M_A    0.0000
   1376 H         101.4174  125.3942   76.2203 H       196      M_A    0.0000
   1377 H         102.9537  126.1624   76.6403 H       196      M_A    0.0000
   1378 H         102.0271  127.1748   78.4359 H       196      M_A    0.0000
   1379 H         101.6102  125.6162   79.1339 H       196      M_A    0.0000
   1380 C          99.6492  127.5851   78.6829 C.3     197      M_A    0.0000
   1381 C          98.3128  127.3406   79.3774 C.3     197      M_A    0.0000
   1382 O          97.4995  128.5127   79.3246 O.3     197      M_A    0.0000
   1383 H          99.5790  128.4147   77.9714 H       197      M_A    0.0000
   1384 H         100.3961  127.8577   79.4372 H       197      M_A    0.0000
   1385 H          98.4780  127.0149   80.4144 H       197      M_A    0.0000
   1386 H          97.7568  126.5326   78.8856 H       197      M_A    0.0000
   1387 C          96.4340  128.4449   80.2503 C.3     198      M_A    0.0000
   1388 C          95.6494  129.7518   80.3192 C.3     198      M_A    0.0000
   1389 O          95.4130  130.1225   81.6774 O.3     198      M_A    0.0000
   1390 H          96.8314  128.1701   81.2331 H       198      M_A    0.0000
   1391 H          95.7593  127.6429   79.9294 H       198      M_A    0.0000
   1392 H          94.7071  129.6587   79.7603 H       198      M_A    0.0000
   1393 H          96.2077  130.5702   79.8478 H       198      M_A    0.0000
   1394 C          95.0887  131.4933   81.7904 C.3     199      M_A    0.0000
   1395 C          93.8068  131.7162   82.5874 C.3     199      M_A    0.0000
   1396 O          93.1084  132.8625   82.1017 O.3     199      M_A    0.0000
   1397 H          95.0107  131.9259   80.7873 H       199      M_A    0.0000
   1398 H          95.9172  131.9943   82.3040 H       199      M_A    0.0000
   1399 H          94.0376  131.8125   83.6581 H       199      M_A    0.0000
   1400 H          93.1318  130.8562   82.4940 H       199      M_A    0.0000
   1401 C          93.5532  134.0455   82.7338 C.3     200      M_A    0.0000
   1402 C          92.6758  135.2453   82.3892 C.3     200      M_A    0.0000
   1403 O          93.4292  136.4553   82.4681 O.3     200      M_A    0.0000
   1404 H          94.5974  134.2271   82.4579 H       200      M_A    0.0000
   1405 H          93.5202  133.8816   83.8170 H       200      M_A    0.0000
   1406 H          91.7986  135.2766   83.0512 H       200      M_A    0.0000
   1407 H          92.2871  135.1665   81.3662 H       200      M_A    0.0000
   1408 C          93.1521  137.1602   83.6610 C.3     201      M_A    0.0000
   1409 C          91.7220  137.6910   83.6953 C.3     201      M_A    0.0000
   1410 O          91.6859  138.9952   84.2746 O.3     201      M_A    0.0000
   1411 H          93.8780  137.9727   83.7729 H       201      M_A    0.0000
   1412 H          93.2945  136.4706   84.5008 H       201      M_A    0.0000
   1413 H          91.0711  136.9929   84.2412 H       201      M_A    0.0000
   1414 H          91.3081  137.7699   82.6823 H       201      M_A    0.0000
   1415 C          91.6965  138.9345   85.6864 C.3     202      M_A    0.0000
   1416 C          93.1101  138.7995   86.2446 C.3     202      M_A    0.0000
   1417 O          93.2921  137.5153   86.8410 O.3     202      M_A    0.0000
   1418 H          91.0615  138.1042   86.0132 H       202      M_A    0.0000
   1419 H          91.2521  139.8614   86.0669 H       202      M_A    0.0000
   1420 H          93.3130  139.6065   86.9633 H       202      M_A    0.0000
   1421 H          93.8580  138.9008   85.4483 H       202      M_A    0.0000
   1422 H          93.1008  137.5357   87.8019 H       202      M_A    0.0000
   1423 H         199.7715  252.3059   52.5781 H         0      M_A    0.0000
@<TRIPOS>BOND
     1     1     2      1
     2     1     4      1
     3     1     5      1
     4     1  1423      1
     5     2     3      1
     6     2     6      1
     7     2     7      1
     8     3     8      1
     9     8     9      1
    10     8    11      1
    11     8    12      1
    12     9    10      1
    13     9    13      1
    14     9    14      1
    15    10    15      1
    16    15    16      1
    17    15    18      1
    18    15    19      1
    19    16    17      1
    20    16    20      1
    21    16    21      1
    22    17    22      1
    23    22    23      1
    24    22    25      1
    25    22    26      1
    26    23    24      1
    27    23    27      1
    28    23    28      1
    29    24    29      1
    30    29    30      1
    31    29    32      1
    32    29    33      1
    33    30    31      1
    34    30    34      1
    35    30    35      1
    36    31    36      1
    37    36    37      1
    38    36    39      1
    39    36    40      1
    40    37    38      1
    41    37    41      1
    42    37    42      1
    43    38    43      1
    44    43    44      1
    45    43    46      1
    46    43    47      1
    47    44    45      1
    48    44    48      1
    49    44    49      1
    50    45    50      1
    51    50    51      1
    52    50    53      1
    53    50    54      1
    54    51    52      1
    55    51    55      1
    56    51    56      1
    57    52    57      1
    58    57    58      1
    59    57    60      1
    60    57    61      1
    61    58    59      1
    62    58    62      1
    63    58    63      1
    64    59    64      1
    65    64    65      1
    66    64    67      1
    67    64    68      1
    68    65    66      1
    69    65    69      1
    70    65    70      1
    71    66    71      1
    72    71    72      1
    73    71    74      1
    74    71    75      1
    75    72    73      1
    76    72    76      1
    77    72    77      1
    78    73    78      1
    79    78    79      1
    80    78    81      1
    81    78    82      1
    82    79    80      1
    83    79    83      1
    84    79    84      1
    85    80    85      1
    86    85    86      1
    87    85    88      1
    88    85    89      1
    89    86    87      1
    90    86    90      1
    91    86    91      1
    92    87    92      1
    93    92    93      1
    94    92    95      1
    95    92    96      1
    96    93    94      1
    97    93    97      1
    98    93    98      1
    99    94    99      1
   100    99   100      1
   101    99   102      1
   102    99   103      1
   103   100   101      1
   104   100   104      1
   105   100   105      1
   106   101   106      1
   107   106   107      1
   108   106   109      1
   109   106   110      1
   110   107   108      1
   111   107   111      1
   112   107   112      1
   113   108   113      1
   114   113   114      1
   115   113   116      1
   116   113   117      1
   117   114   115      1
   118   114   118      1
   119   114   119      1
   120   115   120      1
   121   120   121      1
   122   120   123      1
   123   120   124      1
   124   121   122      1
   125   121   125      1
   126   121   126      1
   127   122   127      1
   128   127   128      1
   129   127   130      1
   130   127   131      1
   131   128   129      1
   132   128   132      1
   133   128   133      1
   134   129   134      1
   135   134   135      1
   136   134   137      1
   137   134   138      1
   138   135   136      1
   139   135   139      1
   140   135   140      1
   141   136   141      1
   142   141   142      1
   143   141   144      1
   144   141   145      1
   145   142   143      1
   146   142   146      1
   147   142   147      1
   148   143   148      1
   149   148   149      1
   150   148   151      1
   151   148   152      1
   152   149   150      1
   153   149   153      1
   154   149   154      1
   155   150   155      1
   156   155   156      1
   157   155   158      1
   158   155   159      1
   159   156   157      1
   160   156   160      1
   161   156   161      1
   162   157   162      1
   163   162   163      1
   164   162   165      1
   165   162   166      1
   166   163   164      1
   167   163   167      1
   168   163   168      1
   169   164   169      1
   170   169   170      1
   171   169   172      1
   172   169   173      1
   173   170   171      1
   174   170   174      1
   175   170   175      1
   176   171   176      1
   177   176   177      1
   178   176   179      1
   179   176   180      1
   180   177   178      1
   181   177   181      1
   182   177   182      1
   183   178   183      1
   184   183   184      1
   185   183   186      1
   186   183   187      1
   187   184   185      1
   188   184   188      1
   189   184   189      1
   190   185   190      1
   191   190   191      1
   192   190   193      1
   193   190   194      1
   194   191   192      1
   195   191   195      1
   196   191   196      1
   197   192   197      1
   198   197   198      1
   199   197   200      1
   200   197   201      1
   201   198   199      1
   202   198   202      1
   203   198   203      1
   204   199   204      1
   205   204   205      1
   206   204   207      1
   207   204   208      1
   208   205   206      1
   209   205   209      1
   210   205   210      1
   211   206   211      1
   212   211   212      1
   213   211   214      1
   214   211   215      1
   215   212   213      1
   216   212   216      1
   217   212   217      1
   218   213   218      1
   219   218   219      1
   220   218   221      1
   221   218   222      1
   222   219   220      1
   223   219   223      1
   224   219   224      1
   225   220   225      1
   226   225   226      1
   227   225   228      1
   228   225   229      1
   229   226   227      1
   230   226   230      1
   231   226   231      1
   232   227   232      1
   233   232   233      1
   234   232   235      1
   235   232   236      1
   236   233   234      1
   237   233   237      1
   238   233   238      1
   239   234   239      1
   240   239   240      1
   241   239   242      1
   242   239   243      1
   243   240   241      1
   244   240   244      1
   245   240   245      1
   246   241   246      1
   247   246   247      1
   248   246   249      1
   249   246   250      1
   250   247   248      1
   251   247   251      1
   252   247   252      1
   253   248   253      1
   254   253   254      1
   255   253   256      1
   256   253   257      1
   257   254   255      1
   258   254   258      1
   259   254   259      1
   260   255   260      1
   261   260   261      1
   262   260   263      1
   263   260   264      1
   264   261   262      1
   265   261   265      1
   266   261   266      1
   267   262   267      1
   268   267   268      1
   269   267   270      1
   270   267   271      1
   271   268   269      1
   272   268   272      1
   273   268   273      1
   274   269   274      1
   275   274   275      1
   276   274   277      1
   277   274   278      1
   278   275   276      1
   279   275   279      1
   280   275   280      1
   281   276   281      1
   282   281   282      1
   283   281   284      1
   284   281   285      1
   285   282   283      1
   286   282   286      1
   287   282   287      1
   288   283   288      1
   289   288   289      1
   290   288   291      1
   291   288   292      1
   292   289   290      1
   293   289   293      1
   294   289   294      1
   295   290   295      1
   296   295   296      1
   297   295   298      1
   298   295   299      1
   299   296   297      1
   300   296   300      1
   301   296   301      1
   302   297   302      1
   303   302   303      1
   304   302   305      1
   305   302   306      1
   306   303   304      1
   307   303   307      1
   308   303   308      1
   309   304   309      1
   310   309   310      1
   311   309   312      1
   312   309   313      1
   313   310   311      1
   314   310   314      1
   315   310   315      1
   316   311   316      1
   317   316   317      1
   318   316   319      1
   319   316   320      1
   320   317   318      1
   321   317   321      1
   322   317   322      1
   323   318   323      1
   324   323   324      1
   325   323   326      1
   326   323   327      1
   327   324   325      1
   328   324   328      1
   329   324   329      1
   330   325   330      1
   331   330   331      1
   332   330   333      1
   333   330   334      1
   334   331   332      1
   335   331   335      1
   336   331   336      1
   337   332   337      1
   338   337   338      1
   339   337   340      1
   340   337   341      1
   341   338   339      1
   342   338   342      1
   343   338   343      1
   344   339   344      1
   345   344   345      1
   346   344   347      1
   347   344   348      1
   348   345   346      1
   349   345   349      1
   350   345   350      1
   351   346   351      1
   352   351   352      1
   353   351   354      1
   354   351   355      1
   355   352   353      1
   356   352   356      1
   357   352   357      1
   358   353   358      1
   359   358   359      1
   360   358   361      1
   361   358   362      1
   362   359   360      1
   363   359   363      1
   364   359   364      1
   365   360   365      1
   366   365   366      1
   367   365   368      1
   368   365   369      1
   369   366   367      1
   370   366   370      1
   371   366   371      1
   372   367   372      1
   373   372   373      1
   374   372   375      1
   375   372   376      1
   376   373   374      1
   377   373   377      1
   378   373   378      1
   379   374   379      1
   380   379   380      1
   381   379   382      1
   382   379   383      1
   383   380   381      1
   384   380   384      1
   385   380   385      1
   386   381   386      1
   387   386   387      1
   388   386   389      1
   389   386   390      1
   390   387   388      1
   391   387   391      1
   392   387   392      1
   393   388   393      1
   394   393   394      1
   395   393   396      1
   396   393   397      1
   397   394   395      1
   398   394   398      1
   399   394   399      1
   400   395   400      1
   401   400   401      1
   402   400   403      1
   403   400   404      1
   404   401   402      1
   405   401   405      1
   406   401   406      1
   407   402   407      1
   408   407   408      1
   409   407   410      1
   410   407   411      1
   411   408   409      1
   412   408   412      1
   413   408   413      1
   414   409   414      1
   415   414   415      1
   416   414   417      1
   417   414   418      1
   418   415   416      1
   419   415   419      1
   420   415   420      1
   421   416   421      1
   422   421   422      1
   423   421   424      1
   424   421   425      1
   425   422   423      1
   426   422   426      1
   427   422   427      1
   428   423   428      1
   429   428   429      1
   430   428   431      1
   431   428   432      1
   432   429   430      1
   433   429   433      1
   434   429   434      1
   435   430   435      1
   436   435   436      1
   437   435   438      1
   438   435   439      1
   439   436   437      1
   440   436   440      1
   441   436   441      1
   442   437   442      1
   443   442   443      1
   444   442   445      1
   445   442   446      1
   446   443   444      1
   447   443   447      1
   448   443   448      1
   449   444   449      1
   450   449   450      1
   451   449   452      1
   452   449   453      1
   453   450   451      1
   454   450   454      1
   455   450   455      1
   456   451   456      1
   457   456   457      1
   458   456   459      1
   459   456   460      1
   460   457   458      1
   461   457   461      1
   462   457   462      1
   463   458   463      1
   464   463   464      1
   465   463   466      1
   466   463   467      1
   467   464   465      1
   468   464   468      1
   469   464   469      1
   470   465   470      1
   471   470   471      1
   472   470   473      1
   473   470   474      1
   474   471   472      1
   475   471   475      1
   476   471   476      1
   477   472   477      1
   478   477   478      1
   479   477   480      1
   480   477   481      1
   481   478   479      1
   482   478   482      1
   483   478   483      1
   484   479   484      1
   485   484   485      1
   486   484   487      1
   487   484   488      1
   488   485   486      1
   489   485   489      1
   490   485   490      1
   491   486   491      1
   492   491   492      1
   493   491   494      1
   494   491   495      1
   495   492   493      1
   496   492   496      1
   497   492   497      1
   498   493   498      1
   499   498   499      1
   500   498   501      1
   501   498   502      1
   502   499   500      1
   503   499   503      1
   504   499   504      1
   505   500   505      1
   506   505   506      1
   507   505   508      1
   508   505   509      1
   509   506   507      1
   510   506   510      1
   511   506   511      1
   512   507   512      1
   513   512   513      1
   514   512   515      1
   515   512   516      1
   516   513   514      1
   517   513   517      1
   518   513   518      1
   519   514   519      1
   520   519   520      1
   521   519   522      1
   522   519   523      1
   523   520   521      1
   524   520   524      1
   525   520   525      1
   526   521   526      1
   527   526   527      1
   528   526   529      1
   529   526   530      1
   530   527   528      1
   531   527   531      1
   532   527   532      1
   533   528   533      1
   534   533   534      1
   535   533   536      1
   536   533   537      1
   537   534   535      1
   538   534   538      1
   539   534   539      1
   540   535   540      1
   541   540   541      1
   542   540   543      1
   543   540   544      1
   544   541   542      1
   545   541   545      1
   546   541   546      1
   547   542   547      1
   548   547   548      1
   549   547   550      1
   550   547   551      1
   551   548   549      1
   552   548   552      1
   553   548   553      1
   554   549   554      1
   555   554   555      1
   556   554   557      1
   557   554   558      1
   558   555   556      1
   559   555   559      1
   560   555   560      1
   561   556   561      1
   562   561   562      1
   563   561   564      1
   564   561   565      1
   565   562   563      1
   566   562   566      1
   567   562   567      1
   568   563   568      1
   569   568   569      1
   570   568   571      1
   571   568   572      1
   572   569   570      1
   573   569   573      1
   574   569   574      1
   575   570   575      1
   576   575   576      1
   577   575   578      1
   578   575   579      1
   579   576   577      1
   580   576   580      1
   581   576   581      1
   582   577   582      1
   583   582   583      1
   584   582   585      1
   585   582   586      1
   586   583   584      1
   587   583   587      1
   588   583   588      1
   589   584   589      1
   590   589   590      1
   591   589   592      1
   592   589   593      1
   593   590   591      1
   594   590   594      1
   595   590   595      1
   596   591   596      1
   597   596   597      1
   598   596   599      1
   599   596   600      1
   600   597   598      1
   601   597   601      1
   602   597   602      1
   603   598   603      1
   604   603   604      1
   605   603   606      1
   606   603   607      1
   607   604   605      1
   608   604   608      1
   609   604   609      1
   610   605   610      1
   611   610   611      1
   612   610   613      1
   613   610   614      1
   614   611   612      1
   615   611   615      1
   616   611   616      1
   617   612   617      1
   618   617   618      1
   619   617   620      1
   620   617   621      1
   621   618   619      1
   622   618   622      1
   623   618   623      1
   624   619   624      1
   625   624   625      1
   626   624   627      1
   627   624   628      1
   628   625   626      1
   629   625   629      1
   630   625   630      1
   631   626   631      1
   632   631   632      1
   633   631   634      1
   634   631   635      1
   635   632   633      1
   636   632   636      1
   637   632   637      1
   638   633   638      1
   639   638   639      1
   640   638   641      1
   641   638   642      1
   642   639   640      1
   643   639   643      1
   644   639   644      1
   645   640   645      1
   646   645   646      1
   647   645   648      1
   648   645   649      1
   649   646   647      1
   650   646   650      1
   651   646   651      1
   652   647   652      1
   653   652   653      1
   654   652   655      1
   655   652   656      1
   656   653   654      1
   657   653   657      1
   658   653   658      1
   659   654   659      1
   660   659   660      1
   661   659   662      1
   662   659   663      1
   663   660   661      1
   664   660   664      1
   665   660   665      1
   666   661   666      1
   667   666   667      1
   668   666   669      1
   669   666   670      1
   670   667   668      1
   671   667   671      1
   672   667   672      1
   673   668   673      1
   674   673   674      1
   675   673   676      1
   676   673   677      1
   677   674   675      1
   678   674   678      1
   679   674   679      1
   680   675   680      1
   681   680   681      1
   682   680   683      1
   683   680   684      1
   684   681   682      1
   685   681   685      1
   686   681   686      1
   687   682   687      1
   688   687   688      1
   689   687   690      1
   690   687   691      1
   691   688   689      1
   692   688   692      1
   693   688   693      1
   694   689   694      1
   695   694   695      1
   696   694   697      1
   697   694   698      1
   698   695   696      1
   699   695   699      1
   700   695   700      1
   701   696   701      1
   702   701   702      1
   703   701   704      1
   704   701   705      1
   705   702   703      1
   706   702   706      1
   707   702   707      1
   708   703   708      1
   709   708   709      1
   710   708   711      1
   711   708   712      1
   712   709   710      1
   713   709   713      1
   714   709   714      1
   715   710   715      1
   716   715   716      1
   717   715   718      1
   718   715   719      1
   719   716   717      1
   720   716   720      1
   721   716   721      1
   722   717   722      1
   723   722   723      1
   724   722   725      1
   725   722   726      1
   726   723   724      1
   727   723   727      1
   728   723   728      1
   729   724   729      1
   730   729   730      1
   731   729   732      1
   732   729   733      1
   733   730   731      1
   734   730   734      1
   735   730   735      1
   736   731   736      1
   737   736   737      1
   738   736   739      1
   739   736   740      1
   740   737   738      1
   741   737   741      1
   742   737   742      1
   743   738   743      1
   744   743   744      1
   745   743   746      1
   746   743   747      1
   747   744   745      1
   748   744   748      1
   749   744   749      1
   750   745   750      1
   751   750   751      1
   752   750   753      1
   753   750   754      1
   754   751   752      1
   755   751   755      1
   756   751   756      1
   757   752   757      1
   758   757   758      1
   759   757   760      1
   760   757   761      1
   761   758   759      1
   762   758   762      1
   763   758   763      1
   764   759   764      1
   765   764   765      1
   766   764   767      1
   767   764   768      1
   768   765   766      1
   769   765   769      1
   770   765   770      1
   771   766   771      1
   772   771   772      1
   773   771   774      1
   774   771   775      1
   775   772   773      1
   776   772   776      1
   777   772   777      1
   778   773   778      1
   779   778   779      1
   780   778   781      1
   781   778   782      1
   782   779   780      1
   783   779   783      1
   784   779   784      1
   785   780   785      1
   786   785   786      1
   787   785   788      1
   788   785   789      1
   789   786   787      1
   790   786   790      1
   791   786   791      1
   792   787   792      1
   793   792   793      1
   794   792   795      1
   795   792   796      1
   796   793   794      1
   797   793   797      1
   798   793   798      1
   799   794   799      1
   800   799   800      1
   801   799   802      1
   802   799   803      1
   803   800   801      1
   804   800   804      1
   805   800   805      1
   806   801   806      1
   807   806   807      1
   808   806   809      1
   809   806   810      1
   810   807   808      1
   811   807   811      1
   812   807   812      1
   813   808   813      1
   814   813   814      1
   815   813   816      1
   816   813   817      1
   817   814   815      1
   818   814   818      1
   819   814   819      1
   820   815   820      1
   821   820   821      1
   822   820   823      1
   823   820   824      1
   824   821   822      1
   825   821   825      1
   826   821   826      1
   827   822   827      1
   828   827   828      1
   829   827   830      1
   830   827   831      1
   831   828   829      1
   832   828   832      1
   833   828   833      1
   834   829   834      1
   835   834   835      1
   836   834   837      1
   837   834   838      1
   838   835   836      1
   839   835   839      1
   840   835   840      1
   841   836   841      1
   842   841   842      1
   843   841   844      1
   844   841   845      1
   845   842   843      1
   846   842   846      1
   847   842   847      1
   848   843   848      1
   849   848   849      1
   850   848   851      1
   851   848   852      1
   852   849   850      1
   853   849   853      1
   854   849   854      1
   855   850   855      1
   856   855   856      1
   857   855   858      1
   858   855   859      1
   859   856   857      1
   860   856   860      1
   861   856   861      1
   862   857   862      1
   863   862   863      1
   864   862   865      1
   865   862   866      1
   866   863   864      1
   867   863   867      1
   868   863   868      1
   869   864   869      1
   870   869   870      1
   871   869   872      1
   872   869   873      1
   873   870   871      1
   874   870   874      1
   875   870   875      1
   876   871   876      1
   877   876   877      1
   878   876   879      1
   879   876   880      1
   880   877   878      1
   881   877   881      1
   882   877   882      1
   883   878   883      1
   884   883   884      1
   885   883   886      1
   886   883   887      1
   887   884   885      1
   888   884   888      1
   889   884   889      1
   890   885   890      1
   891   890   891      1
   892   890   893      1
   893   890   894      1
   894   891   892      1
   895   891   895      1
   896   891   896      1
   897   892   897      1
   898   897   898      1
   899   897   900      1
   900   897   901      1
   901   898   899      1
   902   898   902      1
   903   898   903      1
   904   899   904      1
   905   904   905      1
   906   904   907      1
   907   904   908      1
   908   905   906      1
   909   905   909      1
   910   905   910      1
   911   906   911      1
   912   911   912      1
   913   911   914      1
   914   911   915      1
   915   912   913      1
   916   912   916      1
   917   912   917      1
   918   913   918      1
   919   918   919      1
   920   918   921      1
   921   918   922      1
   922   919   920      1
   923   919   923      1
   924   919   924      1
   925   920   925      1
   926   925   926      1
   927   925   928      1
   928   925   929      1
   929   926   927      1
   930   926   930      1
   931   926   931      1
   932   927   932      1
   933   932   933      1
   934   932   935      1
   935   932   936      1
   936   933   934      1
   937   933   937      1
   938   933   938      1
   939   934   939      1
   940   939   940      1
   941   939   942      1
   942   939   943      1
   943   940   941      1
   944   940   944      1
   945   940   945      1
   946   941   946      1
   947   946   947      1
   948   946   949      1
   949   946   950      1
   950   947   948      1
   951   947   951      1
   952   947   952      1
   953   948   953      1
   954   953   954      1
   955   953   956      1
   956   953   957      1
   957   954   955      1
   958   954   958      1
   959   954   959      1
   960   955   960      1
   961   960   961      1
   962   960   963      1
   963   960   964      1
   964   961   962      1
   965   961   965      1
   966   961   966      1
   967   962   967      1
   968   967   968      1
   969   967   970      1
   970   967   971      1
   971   968   969      1
   972   968   972      1
   973   968   973      1
   974   969   974      1
   975   974   975      1
   976   974   977      1
   977   974   978      1
   978   975   976      1
   979   975   979      1
   980   975   980      1
   981   976   981      1
   982   981   982      1
   983   981   984      1
   984   981   985      1
   985   982   983      1
   986   982   986      1
   987   982   987      1
   988   983   988      1
   989   988   989      1
   990   988   991      1
   991   988   992      1
   992   989   990      1
   993   989   993      1
   994   989   994      1
   995   990   995      1
   996   995   996      1
   997   995   998      1
   998   995   999      1
   999   996   997      1
  1000   996  1000      1
  1001   996  1001      1
  1002   997  1002      1
  1003  1002  1003      1
  1004  1002  1005      1
  1005  1002  1006      1
  1006  1003  1004      1
  1007  1003  1007      1
  1008  1003  1008      1
  1009  1004  1009      1
  1010  1009  1010      1
  1011  1009  1012      1
  1012  1009  1013      1
  1013  1010  1011      1
  1014  1010  1014      1
  1015  1010  1015      1
  1016  1011  1016      1
  1017  1016  1017      1
  1018  1016  1019      1
  1019  1016  1020      1
  1020  1017  1018      1
  1021  1017  1021      1
  1022  1017  1022      1
  1023  1018  1023      1
  1024  1023  1024      1
  1025  1023  1026      1
  1026  1023  1027      1
  1027  1024  1025      1
  1028  1024  1028      1
  1029  1024  1029      1
  1030  1025  1030      1
  1031  1030  1031      1
  1032  1030  1033      1
  1033  1030  1034      1
  1034  1031  1032      1
  1035  1031  1035      1
  1036  1031  1036      1
  1037  1032  1037      1
  1038  1037  1038      1
  1039  1037  1040      1
  1040  1037  1041      1
  1041  1038  1039      1
  1042  1038  1042      1
  1043  1038  1043      1
  1044  1039  1044      1
  1045  1044  1045      1
  1046  1044  1047      1
  1047  1044  1048      1
  1048  1045  1046      1
  1049  1045  1049      1
  1050  1045  1050      1
  1051  1046  1051      1
  1052  1051  1052      1
  1053  1051  1054      1
  1054  1051  1055      1
  1055  1052  1053      1
  1056  1052  1056      1
  1057  1052  1057      1
  1058  1053  1058      1
  1059  1058  1059      1
  1060  1058  1061      1
  1061  1058  1062      1
  1062  1059  1060      1
  1063  1059  1063      1
  1064  1059  1064      1
  1065  1060  1065      1
  1066  1065  1066      1
  1067  1065  1068      1
  1068  1065  1069      1
  1069  1066  1067      1
  1070  1066  1070      1
  1071  1066  1071      1
  1072  1067  1072      1
  1073  1072  1073      1
  1074  1072  1075      1
  1075  1072  1076      1
  1076  1073  1074      1
  1077  1073  1077      1
  1078  1073  1078      1
  1079  1074  1079      1
  1080  1079  1080      1
  1081  1079  1082      1
  1082  1079  1083      1
  1083  1080  1081      1
  1084  1080  1084      1
  1085  1080  1085      1
  1086  1081  1086      1
  1087  1086  1087      1
  1088  1086  1089      1
  1089  1086  1090      1
  1090  1087  1088      1
  1091  1087  1091      1
  1092  1087  1092      1
  1093  1088  1093      1
  1094  1093  1094      1
  1095  1093  1096      1
  1096  1093  1097      1
  1097  1094  1095      1
  1098  1094  1098      1
  1099  1094  1099      1
  1100  1095  1100      1
  1101  1100  1101      1
  1102  1100  1103      1
  1103  1100  1104      1
  1104  1101  1102      1
  1105  1101  1105      1
  1106  1101  1106      1
  1107  1102  1107      1
  1108  1107  1108      1
  1109  1107  1110      1
  1110  1107  1111      1
  1111  1108  1109      1
  1112  1108  1112      1
  1113  1108  1113      1
  1114  1109  1114      1
  1115  1114  1115      1
  1116  1114  1117      1
  1117  1114  1118      1
  1118  1115  1116      1
  1119  1115  1119      1
  1120  1115  1120      1
  1121  1116  1121      1
  1122  1121  1122      1
  1123  1121  1124      1
  1124  1121  1125      1
  1125  1122  1123      1
  1126  1122  1126      1
  1127  1122  1127      1
  1128  1123  1128      1
  1129  1128  1129      1
  1130  1128  1131      1
  1131  1128  1132      1
  1132  1129  1130      1
  1133  1129  1133      1
  1134  1129  1134      1
  1135  1130  1135      1
  1136  1135  1136      1
  1137  1135  1138      1
  1138  1135  1139      1
  1139  1136  1137      1
  1140  1136  1140      1
  1141  1136  1141      1
  1142  1137  1142      1
  1143  1142  1143      1
  1144  1142  1145      1
  1145  1142  1146      1
  1146  1143  1144      1
  1147  1143  1147      1
  1148  1143  1148      1
  1149  1144  1149      1
  1150  1149  1150      1
  1151  1149  1152      1
  1152  1149  1153      1
  1153  1150  1151      1
  1154  1150  1154      1
  1155  1150  1155      1
  1156  1151  1156      1
  1157  1156  1157      1
  1158  1156  1159      1
  1159  1156  1160      1
  1160  1157  1158      1
  1161  1157  1161      1
  1162  1157  1162      1
  1163  1158  1163      1
  1164  1163  1164      1
  1165  1163  1166      1
  1166  1163  1167      1
  1167  1164  1165      1
  1168  1164  1168      1
  1169  1164  1169      1
  1170  1165  1170      1
  1171  1170  1171      1
  1172  1170  1173      1
  1173  1170  1174      1
  1174  1171  1172      1
  1175  1171  1175      1
  1176  1171  1176      1
  1177  1172  1177      1
  1178  1177  1178      1
  1179  1177  1180      1
  1180  1177  1181      1
  1181  1178  1179      1
  1182  1178  1182      1
  1183  1178  1183      1
  1184  1179  1184      1
  1185  1184  1185      1
  1186  1184  1187      1
  1187  1184  1188      1
  1188  1185  1186      1
  1189  1185  1189      1
  1190  1185  1190      1
  1191  1186  1191      1
  1192  1191  1192      1
  1193  1191  1194      1
  1194  1191  1195      1
  1195  1192  1193      1
  1196  1192  1196      1
  1197  1192  1197      1
  1198  1193  1198      1
  1199  1198  1199      1
  1200  1198  1201      1
  1201  1198  1202      1
  1202  1199  1200      1
  1203  1199  1203      1
  1204  1199  1204      1
  1205  1200  1205      1
  1206  1205  1206      1
  1207  1205  1208      1
  1208  1205  1209      1
  1209  1206  1207      1
  1210  1206  1210      1
  1211  1206  1211      1
  1212  1207  1212      1
  1213  1212  1213      1
  1214  1212  1215      1
  1215  1212  1216      1
  1216  1213  1214      1
  1217  1213  1217      1
  1218  1213  1218      1
  1219  1214  1219      1
  1220  1219  1220      1
  1221  1219  1222      1
  1222  1219  1223      1
  1223  1220  1221      1
  1224  1220  1224      1
  1225  1220  1225      1
  1226  1221  1226      1
  1227  1226  1227      1
  1228  1226  1229      1
  1229  1226  1230      1
  1230  1227  1228      1
  1231  1227  1231      1
  1232  1227  1232      1
  1233  1228  1233      1
  1234  1233  1234      1
  1235  1233  1236      1
  1236  1233  1237      1
  1237  1234  1235      1
  1238  1234  1238      1
  1239  1234  1239      1
  1240  1235  1240      1
  1241  1240  1241      1
  1242  1240  1243      1
  1243  1240  1244      1
  1244  1241  1242      1
  1245  1241  1245      1
  1246  1241  1246      1
  1247  1242  1247      1
  1248  1247  1248      1
  1249  1247  1250      1
  1250  1247  1251      1
  1251  1248  1249      1
  1252  1248  1252      1
  1253  1248  1253      1
  1254  1249  1254      1
  1255  1254  1255      1
  1256  1254  1257      1
  1257  1254  1258      1
  1258  1255  1256      1
  1259  1255  1259      1
  1260  1255  1260      1
  1261  1256  1261      1
  1262  1261  1262      1
  1263  1261  1264      1
  1264  1261  1265      1
  1265  1262  1263      1
  1266  1262  1266      1
  1267  1262  1267      1
  1268  1263  1268      1
  1269  1268  1269      1
  1270  1268  1271      1
  1271  1268  1272      1
  1272  1269  1270      1
  1273  1269  1273      1
  1274  1269  1274      1
  1275  1270  1275      1
  1276  1275  1276      1
  1277  1275  1278      1
  1278  1275  1279      1
  1279  1276  1277      1
  1280  1276  1280      1
  1281  1276  1281      1
  1282  1277  1282      1
  1283  1282  1283      1
  1284  1282  1285      1
  1285  1282  1286      1
  1286  1283  1284      1
  1287  1283  1287      1
  1288  1283  1288      1
  1289  1284  1289      1
  1290  1289  1290      1
  1291  1289  1292      1
  1292  1289  1293      1
  1293  1290  1291      1
  1294  1290  1294      1
  1295  1290  1295      1
  1296  1291  1296      1
  1297  1296  1297      1
  1298  1296  1299      1
  1299  1296  1300      1
  1300  1297  1298      1
  1301  1297  1301      1
  1302  1297  1302      1
  1303  1298  1303      1
  1304  1303  1304      1
  1305  1303  1306      1
  1306  1303  1307      1
  1307  1304  1305      1
  1308  1304  1308      1
  1309  1304  1309      1
  1310  1305  1310      1
  1311  1310  1311      1
  1312  1310  1313      1
  1313  1310  1314      1
  1314  1311  1312      1
  1315  1311  1315      1
  1316  1311  1316      1
  1317  1312  1317      1
  1318  1317  1318      1
  1319  1317  1320      1
  1320  1317  1321      1
  1321  1318  1319      1
  1322  1318  1322      1
  1323  1318  1323      1
  1324  1319  1324      1
  1325  1324  1325      1
  1326  1324  1327      1
  1327  1324  1328      1
  1328  1325  1326      1
  1329  1325  1329      1
  1330  1325  1330      1
  1331  1326  1331      1
  1332  1331  1332      1
  1333  1331  1334      1
  1334  1331  1335      1
  1335  1332  1333      1
  1336  1332  1336      1
  1337  1332  1337      1
  1338  1333  1338      1
  1339  1338  1339      1
  1340  1338  1341      1
  1341  1338  1342      1
  1342  1339  1340      1
  1343  1339  1343      1
  1344  1339  1344      1
  1345  1340  1345      1
  1346  1345  1346      1
  1347  1345  1348      1
  1348  1345  1349      1
  1349  1346  1347      1
  1350  1346  1350      1
  1351  1346  1351      1
  1352  1347  1352      1
  1353  1352  1353      1
  1354  1352  1355      1
  1355  1352  1356      1
  1356  1353  1354      1
  1357  1353  1357      1
  1358  1353  1358      1
  1359  1354  1359      1
  1360  1359  1360      1
  1361  1359  1362      1
  1362  1359  1363      1
  1363  1360  1361      1
  1364  1360  1364      1
  1365  1360  1365      1
  1366  1361  1366      1
  1367  1366  1367      1
  1368  1366  1369      1
  1369  1366  1370      1
  1370  1367  1368      1
  1371  1367  1371      1
  1372  1367  1372      1
  1373  1368  1373      1
  1374  1373  1374      1
  1375  1373  1376      1
  1376  1373  1377      1
  1377  1374  1375      1
  1378  1374  1378      1
  1379  1374  1379      1
  1380  1375  1380      1
  1381  1380  1381      1
  1382  1380  1383      1
  1383  1380  1384      1
  1384  1381  1382      1
  1385  1381  1385      1
  1386  1381  1386      1
  1387  1382  1387      1
  1388  1387  1388      1
  1389  1387  1390      1
  1390  1387  1391      1
  1391  1388  1389      1
  1392  1388  1392      1
  1393  1388  1393      1
  1394  1389  1394      1
  1395  1394  1395      1
  1396  1394  1397      1
  1397  1394  1398      1
  1398  1395  1396      1
  1399  1395  1399      1
  1400  1395  1400      1
  1401  1396  1401      1
  1402  1401  1402      1
  1403  1401  1404      1
  1404  1401  1405      1
  1405  1402  1403      1
  1406  1402  1406      1
  1407  1402  1407      1
  1408  1403  1408      1
  1409  1408  1409      1
  1410  1408  1411      1
  1411  1408  1412      1
  1412  1409  1410      1
  1413  1409  1413      1
  1414  1409  1414      1
  1415  1410  1415      1
  1416  1415  1416      1
  1417  1415  1418      1
  1418  1415  1419      1
  1419  1416  1417      1
  1420  1416  1420      1
  1421  1416  1421      1
  1422  1417  1422      1
