###
### Created by PolyChef-cpp17 on Mon May 12 10:39:10 2025
###

@<TRIPOS>MOLECULE
NO_INFO
366 365 1 0 0
SMALL
USER_CHARGES


@<TRIPOS>ATOM
      1 C         192.6377  201.0216   -1.4267 C.3       0      M_A    0.0000
      2 C         192.9254  200.2998   -0.1136 C.3       0      M_A    0.0000
      3 O         192.6457  201.1515    0.9974 O.3       0      M_A    0.0000
      4 H         192.3185  202.0540   -1.2486 H         0      M_A    0.0000
      5 H         193.5581  201.0571   -2.0208 H         0      M_A    0.0000
      6 H         193.9666  199.9469   -0.0947 H         0      M_A    0.0000
      7 H         192.2957  199.4073   -0.0100 H         0      M_A    0.0000
      8 C         193.4430  202.3179    0.9685 C.3       1      M_A    0.0000
      9 C         193.4210  203.0614    2.3007 C.3       1      M_A    0.0000
     10 O         192.9391  204.3933    2.1226 O.3       1      M_A    0.0000
     11 H         193.1039  202.9624    0.1505 H         1      M_A    0.0000
     12 H         194.4733  202.0164    0.7477 H         1      M_A    0.0000
     13 H         194.4223  203.0559    2.7550 H         1      M_A    0.0000
     14 H         192.7550  202.5642    3.0170 H         1      M_A    0.0000
     15 C         193.4398  205.2620    3.1184 C.3       2      M_A    0.0000
     16 C         192.3344  206.0903    3.7665 C.3       2      M_A    0.0000
     17 O         192.7236  207.4607    3.8573 O.3       2      M_A    0.0000
     18 H         194.2090  205.9052    2.6776 H         2      M_A    0.0000
     19 H         193.9218  204.6493    3.8888 H         2      M_A    0.0000
     20 H         192.0825  205.6798    4.7549 H         2      M_A    0.0000
     21 H         191.4131  206.0491    3.1720 H         2      M_A    0.0000
     22 C         193.8635  207.6214    4.6769 C.3       3      M_A    0.0000
     23 C         194.0090  209.0533    5.1836 C.3       3      M_A    0.0000
     24 O         195.3783  209.4562    5.1588 O.3       3      M_A    0.0000
     25 H         194.7520  207.3074    4.1188 H         3      M_A    0.0000
     26 H         193.7576  206.9500    5.5367 H         3      M_A    0.0000
     27 H         193.5839  209.1434    6.1936 H         3      M_A    0.0000
     28 H         193.4492  209.7527    4.5502 H         3      M_A    0.0000
     29 C         195.7133  210.2204    6.2992 C.3       4      M_A    0.0000
     30 C         196.7519  211.2935    5.9864 C.3       4      M_A    0.0000
     31 O         197.6351  211.4730    7.0935 O.3       4      M_A    0.0000
     32 H         196.0650  209.5481    7.0891 H         4      M_A    0.0000
     33 H         194.7993  210.7060    6.6599 H         4      M_A    0.0000
     34 H         196.2543  212.2356    5.7150 H         4      M_A    0.0000
     35 H         197.3633  211.0078    5.1214 H         4      M_A    0.0000
     36 C         197.0662  212.3117    8.0783 C.3       5      M_A    0.0000
     37 C         196.9156  213.7496    7.5905 C.3       5      M_A    0.0000
     38 O         198.1234  214.4798    7.8045 O.3       5      M_A    0.0000
     39 H         197.6783  212.2640    8.9853 H         5      M_A    0.0000
     40 H         196.0747  211.9158    8.3263 H         5      M_A    0.0000
     41 H         196.0629  214.2322    8.0894 H         5      M_A    0.0000
     42 H         196.7001  213.7789    6.5151 H         5      M_A    0.0000
     43 C         198.2189  214.9429    9.1362 C.3       6      M_A    0.0000
     44 C         199.2830  216.0251    9.2928 C.3       6      M_A    0.0000
     45 O         200.5851  215.4424    9.3480 O.3       6      M_A    0.0000
     46 H         198.4196  214.0926    9.7967 H         6      M_A    0.0000
     47 H         197.2453  215.3594    9.4187 H         6      M_A    0.0000
     48 H         199.0783  216.6321   10.1865 H         6      M_A    0.0000
     49 H         199.2683  216.7164    8.4409 H         6      M_A    0.0000
     50 C         201.0578  215.1094    8.0586 C.3       7      M_A    0.0000
     51 C         202.3586  215.8313    7.7198 C.3       7      M_A    0.0000
     52 O         202.2045  216.6097    6.5331 O.3       7      M_A    0.0000
     53 H         200.2779  215.3339    7.3231 H         7      M_A    0.0000
     54 H         201.2355  214.0281    8.0337 H         7      M_A    0.0000
     55 H         203.1796  215.1069    7.6191 H         7      M_A    0.0000
     56 H         202.6492  216.5160    8.5264 H         7      M_A    0.0000
     57 C         203.1089  217.6952    6.5056 C.3       8      M_A    0.0000
     58 C         204.1799  217.5231    5.4326 C.3       8      M_A    0.0000
     59 O         205.4571  217.9194    5.9322 O.3       8      M_A    0.0000
     60 H         203.5582  217.8112    7.4976 H         8      M_A    0.0000
     61 H         202.5365  218.6053    6.2925 H         8      M_A    0.0000
     62 H         203.9091  218.0918    4.5313 H         8      M_A    0.0000
     63 H         204.2597  216.4738    5.1223 H         8      M_A    0.0000
     64 C         205.3324  218.7950    7.0343 C.3       9      M_A    0.0000
     65 C         206.2585  220.0020    6.9164 C.3       9      M_A    0.0000
     66 O         207.1724  220.0404    8.0123 O.3       9      M_A    0.0000
     67 H         205.5250  218.2376    7.9572 H         9      M_A    0.0000
     68 H         204.2948  219.1464    7.0698 H         9      M_A    0.0000
     69 H         205.6689  220.9280    6.8546 H         9      M_A    0.0000
     70 H         206.8522  219.9527    5.9951 H         9      M_A    0.0000
     71 C         208.4110  220.6053    7.6333 C.3      10      M_A    0.0000
     72 C         209.1231  221.2689    8.8083 C.3      10      M_A    0.0000
     73 O         209.7979  222.4521    8.3810 O.3      10      M_A    0.0000
     74 H         208.2443  221.3179    6.8185 H        10      M_A    0.0000
     75 H         209.0440  219.7994    7.2444 H        10      M_A    0.0000
     76 H         209.8187  220.5600    9.2800 H        10      M_A    0.0000
     77 H         208.4072  221.5619    9.5864 H        10      M_A    0.0000
     78 C         210.1847  223.2523    9.4797 C.3      11      M_A    0.0000
     79 C         211.1457  224.3643    9.0698 C.3      11      M_A    0.0000
     80 O         212.4348  224.1486    9.6440 O.3      11      M_A    0.0000
     81 H         210.6268  222.6117   10.2502 H        11      M_A    0.0000
     82 H         209.2800  223.7036    9.9029 H        11      M_A    0.0000
     83 H         210.7381  225.3438    9.3588 H        11      M_A    0.0000
     84 H         211.2719  224.3924    7.9803 H        11      M_A    0.0000
     85 C         213.3059  225.2295    9.3803 C.3      12      M_A    0.0000
     86 C         214.6906  225.0112    9.9830 C.3      12      M_A    0.0000
     87 O         214.8924  225.8770   11.1000 O.3      12      M_A    0.0000
     88 H         212.8528  226.1534    9.7553 H        12      M_A    0.0000
     89 H         213.4038  225.3260    8.2929 H        12      M_A    0.0000
     90 H         215.4655  225.1593    9.2172 H        12      M_A    0.0000
     91 H         214.8047  223.9805   10.3414 H        12      M_A    0.0000
     92 C         215.7622  225.2989   12.0519 C.3      13      M_A    0.0000
     93 C         216.4063  226.3484   12.9529 C.3      13      M_A    0.0000
     94 O         217.7036  226.6956   12.4686 O.3      13      M_A    0.0000
     95 H         216.5212  224.7070   11.5293 H        13      M_A    0.0000
     96 H         215.1748  224.6118   12.6717 H        13      M_A    0.0000
     97 H         216.4509  225.9832   13.9891 H        13      M_A    0.0000
     98 H         215.8073  227.2673   12.9756 H        13      M_A    0.0000
     99 C         218.2683  227.7539   13.2156 C.3      14      M_A    0.0000
    100 C         217.4676  229.0454   13.0773 C.3      14      M_A    0.0000
    101 O         218.3384  230.1508   12.8373 O.3      14      M_A    0.0000
    102 H         219.3078  227.8977   12.9020 H        14      M_A    0.0000
    103 H         218.2786  227.4543   14.2698 H        14      M_A    0.0000
    104 H         216.8524  229.2083   13.9739 H        14      M_A    0.0000
    105 H         216.7707  228.9867   12.2320 H        14      M_A    0.0000
    106 C         217.6210  231.2917   12.4124 C.3      15      M_A    0.0000
    107 C         218.4443  232.5696   12.5439 C.3      15      M_A    0.0000
    108 O         217.7270  233.5524   13.2905 O.3      15      M_A    0.0000
    109 H         216.6892  231.3612   12.9838 H        15      M_A    0.0000
    110 H         217.3539  231.1488   11.3590 H        15      M_A    0.0000
    111 H         218.7211  232.9468   11.5489 H        15      M_A    0.0000
    112 H         219.3858  232.3773   13.0734 H        15      M_A    0.0000
    113 C         218.6010  234.3732   14.0385 C.3      16      M_A    0.0000
    114 C         217.8861  235.5852   14.6286 C.3      16      M_A    0.0000
    115 O         217.9603  236.6948   13.7335 O.3      16      M_A    0.0000
    116 H         219.4371  234.6792   13.4008 H        16      M_A    0.0000
    117 H         219.0115  233.7706   14.8568 H        16      M_A    0.0000
    118 H         218.3109  235.8351   15.6114 H        16      M_A    0.0000
    119 H         216.8235  235.3703   14.7979 H        16      M_A    0.0000
    120 C         216.9304  237.6298   13.9823 C.3      17      M_A    0.0000
    121 C         216.7633  238.6193   12.8328 C.3      17      M_A    0.0000
    122 O         216.4500  239.9191   13.3330 O.3      17      M_A    0.0000
    123 H         217.1390  238.1491   14.9238 H        17      M_A    0.0000
    124 H         215.9945  237.0740   14.1106 H        17      M_A    0.0000
    125 H         215.9924  238.2630   12.1345 H        17      M_A    0.0000
    126 H         217.6896  238.7056   12.2513 H        17      M_A    0.0000
    127 C         215.0748  240.0393   13.6353 C.3      18      M_A    0.0000
    128 C         214.5076  241.3882   13.2028 C.3      18      M_A    0.0000
    129 O         213.8119  242.0084   14.2841 O.3      18      M_A    0.0000
    130 H         214.9291  239.8749   14.7083 H        18      M_A    0.0000
    131 H         214.5418  239.2434   13.1027 H        18      M_A    0.0000
    132 H         213.8549  241.2622   12.3271 H        18      M_A    0.0000
    133 H         215.3095  242.0703   12.8938 H        18      M_A    0.0000
    134 C         213.8380  243.4171   14.1756 C.3      19      M_A    0.0000
    135 C         213.5266  244.1011   15.5035 C.3      19      M_A    0.0000
    136 O         212.9667  245.3952   15.2808 O.3      19      M_A    0.0000
    137 H         213.1347  243.7286   13.3960 H        19      M_A    0.0000
    138 H         214.8430  243.7116   13.8523 H        19      M_A    0.0000
    139 H         214.4335  244.1589   16.1225 H        19      M_A    0.0000
    140 H         212.7955  243.5219   16.0815 H        19      M_A    0.0000
    141 C         212.2454  245.8478   16.4085 C.3      20      M_A    0.0000
    142 C         212.9106  247.0509   17.0705 C.3      20      M_A    0.0000
    143 O         213.0711  246.8261   18.4711 O.3      20      M_A    0.0000
    144 H         212.1321  245.0196   17.1162 H        20      M_A    0.0000
    145 H         211.2427  246.1369   16.0734 H        20      M_A    0.0000
    146 H         212.3267  247.9620   16.8761 H        20      M_A    0.0000
    147 H         213.9082  247.2286   16.6499 H        20      M_A    0.0000
    148 C         213.3803  248.0234   19.1550 C.3      21      M_A    0.0000
    149 C         213.8636  247.7631   20.5786 C.3      21      M_A    0.0000
    150 O         212.8532  248.1174   21.5228 O.3      21      M_A    0.0000
    151 H         212.5005  248.6757   19.1492 H        21      M_A    0.0000
    152 H         214.1749  248.5337   18.5986 H        21      M_A    0.0000
    153 H         214.7979  248.3108   20.7684 H        21      M_A    0.0000
    154 H         214.0938  246.7006   20.7270 H        21      M_A    0.0000
    155 C         213.3044  247.9481   22.8512 C.3      22      M_A    0.0000
    156 C         212.1561  247.9761   23.8555 C.3      22      M_A    0.0000
    157 O         212.5094  248.7556   24.9980 O.3      22      M_A    0.0000
    158 H         214.0467  248.7209   23.0777 H        22      M_A    0.0000
    159 H         213.8075  246.9764   22.9149 H        22      M_A    0.0000
    160 H         211.8767  246.9517   24.1413 H        22      M_A    0.0000
    161 H         211.2592  248.4282   23.4140 H        22      M_A    0.0000
    162 C         213.7940  248.4159   25.4789 C.3      23      M_A    0.0000
    163 C         213.7433  247.8268   26.8855 C.3      23      M_A    0.0000
    164 O         213.6762  248.8666   27.8613 O.3      23      M_A    0.0000
    165 H         214.4345  249.3036   25.4449 H        23      M_A    0.0000
    166 H         214.2227  247.6716   24.7980 H        23      M_A    0.0000
    167 H         214.6120  247.1745   27.0553 H        23      M_A    0.0000
    168 H         212.8547  247.1966   27.0153 H        23      M_A    0.0000
    169 C         212.4310  248.8693   28.5295 C.3      24      M_A    0.0000
    170 C         212.2912  250.0560   29.4783 C.3      24      M_A    0.0000
    171 O         211.3182  249.7794   30.4856 O.3      24      M_A    0.0000
    172 H         212.3095  247.9204   29.0627 H        24      M_A    0.0000
    173 H         211.6418  248.9268   27.7711 H        24      M_A    0.0000
    174 H         212.0357  250.9647   28.9144 H        24      M_A    0.0000
    175 H         213.2403  250.2658   29.9871 H        24      M_A    0.0000
    176 C         210.9301  250.9552   31.1666 C.3      25      M_A    0.0000
    177 C         209.4220  251.0186   31.3892 C.3      25      M_A    0.0000
    178 O         208.8549  252.1115   30.6668 O.3      25      M_A    0.0000
    179 H         211.2838  251.8266   30.6052 H        25      M_A    0.0000
    180 H         211.4329  250.9621   32.1405 H        25      M_A    0.0000
    181 H         209.1997  251.0911   32.4636 H        25      M_A    0.0000
    182 H         208.9340  250.1021   31.0349 H        25      M_A    0.0000
    183 C         209.0054  253.3289   31.3684 C.3      26      M_A    0.0000
    184 C         207.9700  254.3669   30.9458 C.3      26      M_A    0.0000
    185 O         208.5370  255.2894   30.0156 O.3      26      M_A    0.0000
    186 H         210.0239  253.7033   31.2200 H        26      M_A    0.0000
    187 H         208.8818  253.1194   32.4371 H        26      M_A    0.0000
    188 H         207.5696  254.8849   31.8291 H        26      M_A    0.0000
    189 H         207.1133  253.8893   30.4541 H        26      M_A    0.0000
    190 C         207.5364  256.0272   29.3437 C.3      27      M_A    0.0000
    191 C         206.7724  255.1731   28.3362 C.3      27      M_A    0.0000
    192 O         206.1548  255.9975   27.3478 O.3      27      M_A    0.0000
    193 H         207.9971  256.8941   28.8581 H        27      M_A    0.0000
    194 H         206.8330  256.4033   30.0953 H        27      M_A    0.0000
    195 H         206.0318  254.5468   28.8541 H        27      M_A    0.0000
    196 H         207.4475  254.4839   27.8139 H        27      M_A    0.0000
    197 C         205.6996  257.2155   27.9011 C.3      28      M_A    0.0000
    198 C         204.1841  257.3611   27.8003 C.3      28      M_A    0.0000
    199 O         203.8410  258.3970   26.8799 O.3      28      M_A    0.0000
    200 H         206.2106  258.0469   27.4039 H        28      M_A    0.0000
    201 H         205.9880  257.2340   28.9584 H        28      M_A    0.0000
    202 H         203.7541  257.5508   28.7943 H        28      M_A    0.0000
    203 H         203.7239  256.4336   27.4374 H        28      M_A    0.0000
    204 C         202.4503  258.4279   26.6309 C.3      29      M_A    0.0000
    205 C         202.0845  259.4301   25.5400 C.3      29      M_A    0.0000
    206 O         201.4787  260.5906   26.1092 O.3      29      M_A    0.0000
    207 H         201.9249  258.6516   27.5655 H        29      M_A    0.0000
    208 H         202.1431  257.4261   26.3096 H        29      M_A    0.0000
    209 H         201.4253  258.9585   24.7970 H        29      M_A    0.0000
    210 H         202.9774  259.7598   24.9944 H        29      M_A    0.0000
    211 C         201.7571  261.7466   25.3456 C.3      30      M_A    0.0000
    212 C         201.0778  262.9884   25.9154 C.3      30      M_A    0.0000
    213 O         199.9520  263.3538   25.1172 O.3      30      M_A    0.0000
    214 H         201.4538  261.5711   24.3080 H        30      M_A    0.0000
    215 H         202.8421  261.9015   25.3522 H        30      M_A    0.0000
    216 H         201.7992  263.8146   25.9912 H        30      M_A    0.0000
    217 H         200.7126  262.8039   26.9335 H        30      M_A    0.0000
    218 C         198.9029  263.8724   25.9092 C.3      31      M_A    0.0000
    219 C         198.5588  265.3112   25.5355 C.3      31      M_A    0.0000
    220 O         197.8096  265.9338   26.5791 O.3      31      M_A    0.0000
    221 H         199.1804  263.7940   26.9658 H        31      M_A    0.0000
    222 H         198.0190  263.2440   25.7512 H        31      M_A    0.0000
    223 H         198.0123  265.3353   24.5818 H        31      M_A    0.0000
    224 H         199.4684  265.9059   25.3844 H        31      M_A    0.0000
    225 C         196.4679  265.4904   26.5879 C.3      32      M_A    0.0000
    226 C         195.4799  266.6479   26.4774 C.3      32      M_A    0.0000
    227 O         194.5629  266.6294   27.5713 O.3      32      M_A    0.0000
    228 H         196.2909  264.9050   27.4965 H        32      M_A    0.0000
    229 H         196.3282  264.8220   25.7306 H        32      M_A    0.0000
    230 H         194.9530  266.6064   25.5132 H        32      M_A    0.0000
    231 H         196.0014  267.6129   26.5022 H        32      M_A    0.0000
    232 C         194.1532  267.9348   27.9248 C.3      33      M_A    0.0000
    233 C         192.9599  267.9242   28.8756 C.3      33      M_A    0.0000
    234 O         191.7535  268.2100   28.1679 O.3      33      M_A    0.0000
    235 H         193.9272  268.4976   27.0130 H        33      M_A    0.0000
    236 H         194.9964  268.4302   28.4197 H        33      M_A    0.0000
    237 H         193.1214  268.6390   29.6954 H        33      M_A    0.0000
    238 H         192.8402  266.9395   29.3446 H        33      M_A    0.0000
    239 C         190.6679  267.4586   28.6716 C.3      34      M_A    0.0000
    240 C         189.7303  268.3064   29.5261 C.3      34      M_A    0.0000
    241 O         189.3288  267.5877   30.6923 O.3      34      M_A    0.0000
    242 H         191.0561  266.6055   29.2381 H        34      M_A    0.0000
    243 H         190.1075  267.0618   27.8173 H        34      M_A    0.0000
    244 H         188.8606  268.6248   28.9335 H        34      M_A    0.0000
    245 H         190.2277  269.2251   29.8614 H        34      M_A    0.0000
    246 C         187.9395  267.7071   30.9208 C.3      35      M_A    0.0000
    247 C         187.5894  267.5943   32.4016 C.3      35      M_A    0.0000
    248 O         186.2630  267.0925   32.5655 O.3      35      M_A    0.0000
    249 H         187.4139  266.9483   30.3314 H        35      M_A    0.0000
    250 H         187.6211  268.6901   30.5551 H        35      M_A    0.0000
    251 H         187.7122  268.5687   32.8960 H        35      M_A    0.0000
    252 H         188.2684  266.9012   32.9139 H        35      M_A    0.0000
    253 C         185.3006  268.1165   32.4164 C.3      36      M_A    0.0000
    254 C         185.3668  269.1360   33.5498 C.3      36      M_A    0.0000
    255 O         184.6072  268.6868   34.6719 O.3      36      M_A    0.0000
    256 H         184.3054  267.6645   32.3489 H        36      M_A    0.0000
    257 H         185.4973  268.6282   31.4674 H        36      M_A    0.0000
    258 H         185.0182  270.1176   33.1980 H        36      M_A    0.0000
    259 H         186.4003  269.2794   33.8889 H        36      M_A    0.0000
    260 C         184.7759  267.3007   34.8893 C.3      37      M_A    0.0000
    261 C         183.9812  266.8077   36.0949 C.3      37      M_A    0.0000
    262 O         184.8492  266.5682   37.2025 O.3      37      M_A    0.0000
    263 H         185.8433  267.0843   35.0041 H        37      M_A    0.0000
    264 H         184.4254  266.7742   33.9942 H        37      M_A    0.0000
    265 H         183.4117  265.9050   35.8307 H        37      M_A    0.0000
    266 H         183.2435  267.5557   36.4113 H        37      M_A    0.0000
    267 C         184.3536  265.5397   38.0352 C.3      38      M_A    0.0000
    268 C         184.6873  265.7798   39.5046 C.3      38      M_A    0.0000
    269 O         185.8510  265.0432   39.8804 O.3      38      M_A    0.0000
    270 H         184.7511  264.5789   37.6915 H        38      M_A    0.0000
    271 H         183.2641  265.5081   37.9196 H        38      M_A    0.0000
    272 H         183.8268  265.5179   40.1369 H        38      M_A    0.0000
    273 H         184.8954  266.8407   39.6917 H        38      M_A    0.0000
    274 C         185.9742  264.9522   41.2852 C.3      39      M_A    0.0000
    275 C         186.8344  266.0738   41.8599 C.3      39      M_A    0.0000
    276 O         187.7436  265.5589   42.8325 O.3      39      M_A    0.0000
    277 H         186.3809  263.9692   41.5454 H        39      M_A    0.0000
    278 H         184.9690  265.0197   41.7167 H        39      M_A    0.0000
    279 H         186.1962  266.8610   42.2865 H        39      M_A    0.0000
    280 H         187.4310  266.5532   41.0738 H        39      M_A    0.0000
    281 C         187.1619  264.5106   43.5806 C.3      40      M_A    0.0000
    282 C         187.2554  264.7573   45.0835 C.3      40      M_A    0.0000
    283 O         187.9399  263.6816   45.7255 O.3      40      M_A    0.0000
    284 H         187.6416  263.5656   43.3045 H        40      M_A    0.0000
    285 H         186.1052  264.4410   43.2978 H        40      M_A    0.0000
    286 H         186.2513  264.9021   45.5075 H        40      M_A    0.0000
    287 H         187.8152  265.6765   45.2964 H        40      M_A    0.0000
    288 C         187.8632  263.7862   47.1326 C.3      41      M_A    0.0000
    289 C         189.1300  263.2798   47.8160 C.3      41      M_A    0.0000
    290 O         188.9218  263.1487   49.2221 O.3      41      M_A    0.0000
    291 H         186.9800  263.2420   47.4838 H        41      M_A    0.0000
    292 H         187.7228  264.8436   47.3848 H        41      M_A    0.0000
    293 H         189.9732  263.9508   47.5974 H        41      M_A    0.0000
    294 H         189.4148  262.2921   47.4325 H        41      M_A    0.0000
    295 C         190.0286  263.6319   49.9561 C.3      42      M_A    0.0000
    296 C         190.1657  262.9409   51.3096 C.3      42      M_A    0.0000
    297 O         190.2336  263.9059   52.3594 O.3      42      M_A    0.0000
    298 H         189.9333  264.7165   50.0738 H        42      M_A    0.0000
    299 H         190.9329  263.4406   49.3671 H        42      M_A    0.0000
    300 H         191.0473  262.2840   51.3127 H        42      M_A    0.0000
    301 H         189.3008  262.2968   51.5109 H        42      M_A    0.0000
    302 C         191.0272  263.4457   53.4343 C.3      43      M_A    0.0000
    303 C         190.3453  263.6567   54.7829 C.3      43      M_A    0.0000
    304 O         191.2019  264.3764   55.6696 O.3      43      M_A    0.0000
    305 H         192.0002  263.9474   53.4005 H        43      M_A    0.0000
    306 H         191.2019  262.3735   53.2893 H        43      M_A    0.0000
    307 H         190.0466  262.6897   55.2125 H        43      M_A    0.0000
    308 H         189.4239  264.2415   54.6697 H        43      M_A    0.0000
    309 C         190.5275  264.7430   56.8561 C.3      44      M_A    0.0000
    310 C         189.4739  265.8185   56.6086 C.3      44      M_A    0.0000
    311 O         188.7363  266.0807   57.8024 O.3      44      M_A    0.0000
    312 H         191.2628  265.0731   57.5976 H        44      M_A    0.0000
    313 H         190.0345  263.8485   57.2536 H        44      M_A    0.0000
    314 H         188.8094  265.5168   55.7862 H        44      M_A    0.0000
    315 H         189.9408  266.7613   56.2972 H        44      M_A    0.0000
    316 C         188.2500  264.8874   58.3825 C.3      45      M_A    0.0000
    317 C         186.7730  264.9889   58.7517 C.3      45      M_A    0.0000
    318 O         186.5913  264.7760   60.1515 O.3      45      M_A    0.0000
    319 H         188.8603  264.6411   59.2579 H        45      M_A    0.0000
    320 H         188.3782  264.0808   57.6515 H        45      M_A    0.0000
    321 H         186.1837  264.2746   58.1588 H        45      M_A    0.0000
    322 H         186.3771  265.9848   58.5167 H        45      M_A    0.0000
    323 C         185.3969  264.0688   60.4163 C.3      46      M_A    0.0000
    324 C         184.3370  264.9545   61.0648 C.3      46      M_A    0.0000
    325 O         184.0604  264.5125   62.3937 O.3      46      M_A    0.0000
    326 H         185.6266  263.2022   61.0453 H        46      M_A    0.0000
    327 H         185.0094  263.6927   59.4625 H        46      M_A    0.0000
    328 H         183.4256  264.9678   60.4501 H        46      M_A    0.0000
    329 H         184.6804  265.9945   61.1294 H        46      M_A    0.0000
    330 C         182.8548  265.0646   62.8820 C.3      47      M_A    0.0000
    331 C         182.6341  264.7469   64.3581 C.3      47      M_A    0.0000
    332 O         181.2399  264.6320   64.6423 O.3      47      M_A    0.0000
    333 H         182.0219  264.7012   62.2707 H        47      M_A    0.0000
    334 H         182.9075  266.1523   62.7576 H        47      M_A    0.0000
    335 H         183.1084  265.5144   64.9865 H        47      M_A    0.0000
    336 H         183.1043  263.7932   64.6289 H        47      M_A    0.0000
    337 C         181.0159  263.9999   65.8861 C.3      48      M_A    0.0000
    338 C         179.5508  263.6220   66.0825 C.3      48      M_A    0.0000
    339 O         178.8070  264.7386   66.5705 O.3      48      M_A    0.0000
    340 H         181.3657  264.6574   66.6892 H        48      M_A    0.0000
    341 H         181.6242  263.0886   65.9153 H        48      M_A    0.0000
    342 H         179.4688  262.7600   66.7602 H        48      M_A    0.0000
    343 H         179.0945  263.3127   65.1339 H        48      M_A    0.0000
    344 C         177.9682  265.2785   65.5696 C.3      49      M_A    0.0000
    345 C         176.8304  266.1066   66.1593 C.3      49      M_A    0.0000
    346 O         175.5881  265.7557   65.5499 O.3      49      M_A    0.0000
    347 H         177.5829  264.4631   64.9482 H        49      M_A    0.0000
    348 H         178.5804  265.9230   64.9284 H        49      M_A    0.0000
    349 H         177.0429  267.1793   66.0449 H        49      M_A    0.0000
    350 H         176.7305  265.9254   67.2367 H        49      M_A    0.0000
    351 C         174.7447  266.8809   65.4096 C.3      50      M_A    0.0000
    352 C         174.0251  267.2247   66.7104 C.3      50      M_A    0.0000
    353 O         172.7201  267.7364   66.4402 O.3      50      M_A    0.0000
    354 H         174.0309  266.6937   64.6004 H        50      M_A    0.0000
    355 H         175.3666  267.7331   65.1125 H        50      M_A    0.0000
    356 H         174.6211  267.9388   67.2965 H        50      M_A    0.0000
    357 H         173.9049  266.3341   67.3398 H        50      M_A    0.0000
    358 C         172.4987  267.8818   65.0522 C.3      51      M_A    0.0000
    359 C         173.8022  267.8745   64.2590 C.3      51      M_A    0.0000
    360 O         173.5986  267.3030   62.9668 O.3      51      M_A    0.0000
    361 H         171.9334  268.8029   64.8750 H        51      M_A    0.0000
    362 H         171.8771  267.0424   64.7203 H        51      M_A    0.0000
    363 H         174.5823  267.3359   64.8161 H        51      M_A    0.0000
    364 H         174.1777  268.8948   64.1115 H        51      M_A    0.0000
    365 H         173.7937  266.3426   62.9646 H        51      M_A    0.0000
    366 H         191.8770  200.5110   -2.0173 H         0      M_A    0.0000
@<TRIPOS>BOND
     1     1     2      1
     2     1     4      1
     3     1     5      1
     4     1   366      1
     5     2     3      1
     6     2     6      1
     7     2     7      1
     8     3     8      1
     9     8     9      1
    10     8    11      1
    11     8    12      1
    12     9    10      1
    13     9    13      1
    14     9    14      1
    15    10    15      1
    16    15    16      1
    17    15    18      1
    18    15    19      1
    19    16    17      1
    20    16    20      1
    21    16    21      1
    22    17    22      1
    23    22    23      1
    24    22    25      1
    25    22    26      1
    26    23    24      1
    27    23    27      1
    28    23    28      1
    29    24    29      1
    30    29    30      1
    31    29    32      1
    32    29    33      1
    33    30    31      1
    34    30    34      1
    35    30    35      1
    36    31    36      1
    37    36    37      1
    38    36    39      1
    39    36    40      1
    40    37    38      1
    41    37    41      1
    42    37    42      1
    43    38    43      1
    44    43    44      1
    45    43    46      1
    46    43    47      1
    47    44    45      1
    48    44    48      1
    49    44    49      1
    50    45    50      1
    51    50    51      1
    52    50    53      1
    53    50    54      1
    54    51    52      1
    55    51    55      1
    56    51    56      1
    57    52    57      1
    58    57    58      1
    59    57    60      1
    60    57    61      1
    61    58    59      1
    62    58    62      1
    63    58    63      1
    64    59    64      1
    65    64    65      1
    66    64    67      1
    67    64    68      1
    68    65    66      1
    69    65    69      1
    70    65    70      1
    71    66    71      1
    72    71    72      1
    73    71    74      1
    74    71    75      1
    75    72    73      1
    76    72    76      1
    77    72    77      1
    78    73    78      1
    79    78    79      1
    80    78    81      1
    81    78    82      1
    82    79    80      1
    83    79    83      1
    84    79    84      1
    85    80    85      1
    86    85    86      1
    87    85    88      1
    88    85    89      1
    89    86    87      1
    90    86    90      1
    91    86    91      1
    92    87    92      1
    93    92    93      1
    94    92    95      1
    95    92    96      1
    96    93    94      1
    97    93    97      1
    98    93    98      1
    99    94    99      1
   100    99   100      1
   101    99   102      1
   102    99   103      1
   103   100   101      1
   104   100   104      1
   105   100   105      1
   106   101   106      1
   107   106   107      1
   108   106   109      1
   109   106   110      1
   110   107   108      1
   111   107   111      1
   112   107   112      1
   113   108   113      1
   114   113   114      1
   115   113   116      1
   116   113   117      1
   117   114   115      1
   118   114   118      1
   119   114   119      1
   120   115   120      1
   121   120   121      1
   122   120   123      1
   123   120   124      1
   124   121   122      1
   125   121   125      1
   126   121   126      1
   127   122   127      1
   128   127   128      1
   129   127   130      1
   130   127   131      1
   131   128   129      1
   132   128   132      1
   133   128   133      1
   134   129   134      1
   135   134   135      1
   136   134   137      1
   137   134   138      1
   138   135   136      1
   139   135   139      1
   140   135   140      1
   141   136   141      1
   142   141   142      1
   143   141   144      1
   144   141   145      1
   145   142   143      1
   146   142   146      1
   147   142   147      1
   148   143   148      1
   149   148   149      1
   150   148   151      1
   151   148   152      1
   152   149   150      1
   153   149   153      1
   154   149   154      1
   155   150   155      1
   156   155   156      1
   157   155   158      1
   158   155   159      1
   159   156   157      1
   160   156   160      1
   161   156   161      1
   162   157   162      1
   163   162   163      1
   164   162   165      1
   165   162   166      1
   166   163   164      1
   167   163   167      1
   168   163   168      1
   169   164   169      1
   170   169   170      1
   171   169   172      1
   172   169   173      1
   173   170   171      1
   174   170   174      1
   175   170   175      1
   176   171   176      1
   177   176   177      1
   178   176   179      1
   179   176   180      1
   180   177   178      1
   181   177   181      1
   182   177   182      1
   183   178   183      1
   184   183   184      1
   185   183   186      1
   186   183   187      1
   187   184   185      1
   188   184   188      1
   189   184   189      1
   190   185   190      1
   191   190   191      1
   192   190   193      1
   193   190   194      1
   194   191   192      1
   195   191   195      1
   196   191   196      1
   197   192   197      1
   198   197   198      1
   199   197   200      1
   200   197   201      1
   201   198   199      1
   202   198   202      1
   203   198   203      1
   204   199   204      1
   205   204   205      1
   206   204   207      1
   207   204   208      1
   208   205   206      1
   209   205   209      1
   210   205   210      1
   211   206   211      1
   212   211   212      1
   213   211   214      1
   214   211   215      1
   215   212   213      1
   216   212   216      1
   217   212   217      1
   218   213   218      1
   219   218   219      1
   220   218   221      1
   221   218   222      1
   222   219   220      1
   223   219   223      1
   224   219   224      1
   225   220   225      1
   226   225   226      1
   227   225   228      1
   228   225   229      1
   229   226   227      1
   230   226   230      1
   231   226   231      1
   232   227   232      1
   233   232   233      1
   234   232   235      1
   235   232   236      1
   236   233   234      1
   237   233   237      1
   238   233   238      1
   239   234   239      1
   240   239   240      1
   241   239   242      1
   242   239   243      1
   243   240   241      1
   244   240   244      1
   245   240   245      1
   246   241   246      1
   247   246   247      1
   248   246   249      1
   249   246   250      1
   250   247   248      1
   251   247   251      1
   252   247   252      1
   253   248   253      1
   254   253   254      1
   255   253   256      1
   256   253   257      1
   257   254   255      1
   258   254   258      1
   259   254   259      1
   260   255   260      1
   261   260   261      1
   262   260   263      1
   263   260   264      1
   264   261   262      1
   265   261   265      1
   266   261   266      1
   267   262   267      1
   268   267   268      1
   269   267   270      1
   270   267   271      1
   271   268   269      1
   272   268   272      1
   273   268   273      1
   274   269   274      1
   275   274   275      1
   276   274   277      1
   277   274   278      1
   278   275   276      1
   279   275   279      1
   280   275   280      1
   281   276   281      1
   282   281   282      1
   283   281   284      1
   284   281   285      1
   285   282   283      1
   286   282   286      1
   287   282   287      1
   288   283   288      1
   289   288   289      1
   290   288   291      1
   291   288   292      1
   292   289   290      1
   293   289   293      1
   294   289   294      1
   295   290   295      1
   296   295   296      1
   297   295   298      1
   298   295   299      1
   299   296   297      1
   300   296   300      1
   301   296   301      1
   302   297   302      1
   303   302   303      1
   304   302   305      1
   305   302   306      1
   306   303   304      1
   307   303   307      1
   308   303   308      1
   309   304   309      1
   310   309   310      1
   311   309   312      1
   312   309   313      1
   313   310   311      1
   314   310   314      1
   315   310   315      1
   316   311   316      1
   317   316   317      1
   318   316   319      1
   319   316   320      1
   320   317   318      1
   321   317   321      1
   322   317   322      1
   323   318   323      1
   324   323   324      1
   325   323   326      1
   326   323   327      1
   327   324   325      1
   328   324   328      1
   329   324   329      1
   330   325   330      1
   331   330   331      1
   332   330   333      1
   333   330   334      1
   334   331   332      1
   335   331   335      1
   336   331   336      1
   337   332   337      1
   338   337   338      1
   339   337   340      1
   340   337   341      1
   341   338   339      1
   342   338   342      1
   343   338   343      1
   344   339   344      1
   345   344   345      1
   346   344   347      1
   347   344   348      1
   348   345   346      1
   349   345   349      1
   350   345   350      1
   351   346   351      1
   352   351   352      1
   353   351   354      1
   354   351   355      1
   355   352   353      1
   356   352   356      1
   357   352   357      1
   358   353   358      1
   359   358   359      1
   360   358   361      1
   361   358   362      1
   362   359   360      1
   363   359   363      1
   364   359   364      1
   365   360   365      1
