###
### Created by PolyChef-cpp17 on Thu Feb 27 19:40:28 2025
###

@<TRIPOS>MOLECULE
NO_INFO
302 301 1 0 0
SMALL
USER_CHARGES


@<TRIPOS>ATOM
      1 C         179.2798    1.2287  120.6551 C.3       0        0    0.0000
      2 C         178.4513    0.0775  120.0742 C.3       0        0    0.0000
      3 H         178.8875    2.1902  120.3015 H         0        0    0.0000
      4 H         180.3161    1.1621  120.3014 H         0        0    0.0000
      5 H         178.4068   -0.7525  120.7902 H         0        0    0.0000
      6 H         177.4177    0.4050  119.9069 H         0        0    0.0000
      7 C         179.0385   -0.4533  118.7211 C.3       1        0    0.0000
      8 C         179.6331    0.6705  117.8653 C.3       1        0    0.0000
      9 H         179.8061   -1.2060  118.9398 H         1        0    0.0000
     10 H         178.2426   -0.9668  118.1675 H         1        0    0.0000
     11 H         178.9393    1.5194  117.8242 H         1        0    0.0000
     12 H         180.5586    1.0420  118.3225 H         1        0    0.0000
     13 C         179.9451    0.2017  116.4023 C.3       2        0    0.0000
     14 C         179.8830    1.3565  115.3966 C.3       2        0    0.0000
     15 H         180.9399   -0.2603  116.3836 H         2        0    0.0000
     16 H         179.2291   -0.5806  116.1215 H         2        0    0.0000
     17 H         178.9612    1.9332  115.5424 H         2        0    0.0000
     18 H         180.7174    2.0483  115.5661 H         2        0    0.0000
     19 C         179.9359    0.8551  113.9122 C.3       3        0    0.0000
     20 C         179.8239    2.0059  112.9061 C.3       3        0    0.0000
     21 H         180.8748    0.3095  113.7566 H         3        0    0.0000
     22 H         179.1232    0.1357  113.7529 H         3        0    0.0000
     23 H         178.8888    2.5566  113.0671 H         3        0    0.0000
     24 H         180.6413    2.7212  113.0601 H         3        0    0.0000
     25 C         179.8651    1.5034  111.4218 C.3       4        0    0.0000
     26 C         179.7789    2.6563  110.4156 C.3       4        0    0.0000
     27 H         180.7914    0.9366  111.2659 H         4        0    0.0000
     28 H         179.0363    0.8024  111.2626 H         4        0    0.0000
     29 H         178.8502    3.2201  110.5682 H         4        0    0.0000
     30 H         180.6049    3.3598  110.5780 H         4        0    0.0000
     31 C         179.8272    2.1544  108.9313 C.3       5        0    0.0000
     32 C         178.7150    2.7685  108.0740 C.3       5        0    0.0000
     33 H         180.8085    2.4000  108.5067 H         5        0    0.0000
     34 H         179.7461    1.0603  108.9252 H         5        0    0.0000
     35 H         177.7663    2.7579  108.6247 H         5        0    0.0000
     36 H         178.9429    3.8199  107.8592 H         5        0    0.0000
     37 C         178.5207    2.0063  106.7180 C.3       6        0    0.0000
     38 C         178.7689    2.9083  105.5039 C.3       6        0    0.0000
     39 H         179.2029    1.1475  106.6942 H         6        0    0.0000
     40 H         177.5021    1.6006  106.6832 H         6        0    0.0000
     41 H         177.8313    3.3845  105.1912 H         6        0    0.0000
     42 H         179.4593    3.7178  105.7715 H         6        0    0.0000
     43 C         179.3640    2.1177  104.2881 C.3       7        0    0.0000
     44 C         178.6929    2.4976  102.9636 C.3       7        0    0.0000
     45 H         180.4422    2.3129  104.2331 H         7        0    0.0000
     46 H         179.2475    1.0429  104.4742 H         7        0    0.0000
     47 H         177.6021    2.4971  103.0809 H         7        0    0.0000
     48 H         178.9783    3.5172  102.6761 H         7        0    0.0000
     49 C         179.0766    1.5187  101.8009 C.3       8        0    0.0000
     50 C         178.8697    2.1486  100.4191 C.3       8        0    0.0000
     51 H         180.1242    1.2171  101.9239 H         8        0    0.0000
     52 H         178.4734    0.6069  101.8928 H         8        0    0.0000
     53 H         177.8058    2.3630  100.2589 H         8        0    0.0000
     54 H         179.3969    3.1089  100.3607 H         8        0    0.0000
     55 C         179.3782    1.2218   99.2616 C.3       9        0    0.0000
     56 C         179.0797    1.8058   97.8763 C.3       9        0    0.0000
     57 H         180.4579    1.0680   99.3802 H         9        0    0.0000
     58 H         178.9065    0.2367   99.3642 H         9        0    0.0000
     59 H         178.0022    1.9799   97.7657 H         9        0    0.0000
     60 H         179.5694    2.7812   97.7657 H         9        0    0.0000
     61 C         179.5608    0.8647   96.7186 C.3      10        0    0.0000
     62 C         179.2570    1.4459   95.3333 C.3      10        0    0.0000
     63 H         180.6391    0.6939   96.8267 H        10        0    0.0000
     64 H         179.0743   -0.1121   96.8316 H        10        0    0.0000
     65 H         178.1785    1.6155   95.2249 H        10        0    0.0000
     66 H         179.7425    2.4232   95.2207 H        10        0    0.0000
     67 C         179.7395    0.5055   94.1756 C.3      11        0    0.0000
     68 C         179.4370    1.0874   92.7904 C.3      11        0    0.0000
     69 H         180.8177    0.3349   94.2847 H        11        0    0.0000
     70 H         179.2531   -0.4714   94.2876 H        11        0    0.0000
     71 H         178.3586    1.2560   92.6805 H        11        0    0.0000
     72 H         179.9217    2.0653   92.6792 H        11        0    0.0000
     73 C         179.9222    0.1485   91.6326 C.3      12        0    0.0000
     74 C         179.6212    0.7311   90.2474 C.3      12        0    0.0000
     75 H         181.0005   -0.0210   91.7432 H        12        0    0.0000
     76 H         179.4367   -0.8291   91.7432 H        12        0    0.0000
     77 H         178.5425    0.8973   90.1355 H        12        0    0.0000
     78 H         180.1038    1.7103   90.1381 H        12        0    0.0000
     79 C         180.1108   -0.2056   89.0897 C.3      13        0    0.0000
     80 C         179.8049    0.3745   87.7044 C.3      13        0    0.0000
     81 H         181.1902   -0.3685   89.1992 H        13        0    0.0000
     82 H         179.6313   -1.1859   89.2012 H        13        0    0.0000
     83 H         178.7267    0.5473   87.5987 H        13        0    0.0000
     84 H         180.2931    1.3502   87.5890 H        13        0    0.0000
     85 C         180.2814   -0.5690   86.5467 C.3      14        0    0.0000
     86 C         179.9622    0.0042   85.1616 C.3      14        0    0.0000
     87 H         181.3615   -0.7330   86.6462 H        14        0    0.0000
     88 H         179.8016   -1.5480   86.6684 H        14        0    0.0000
     89 H         178.8934    0.2412   85.0897 H        14        0    0.0000
     90 H         180.5045    0.9458   85.0101 H        14        0    0.0000
     91 C         180.3388   -0.9872   84.0072 C.3      15        0    0.0000
     92 C         179.9906   -0.4269   82.6237 C.3      15        0    0.0000
     93 H         181.4122   -1.2060   84.0651 H        15        0    0.0000
     94 H         179.8143   -1.9367   84.1714 H        15        0    0.0000
     95 H         178.9120   -0.5144   82.4430 H        15        0    0.0000
     96 H         180.2317    0.6424   82.5794 H        15        0    0.0000
     97 C         180.7573   -1.1659   81.4733 C.3      16        0    0.0000
     98 C         180.4686   -0.5556   80.0974 C.3      16        0    0.0000
     99 H         181.8333   -1.1272   81.6837 H        16        0    0.0000
    100 H         180.4725   -2.2253   81.4821 H        16        0    0.0000
    101 H         180.9352   -1.1622   79.3114 H        16        0    0.0000
    102 H         179.3891   -0.5626   79.9017 H        16        0    0.0000
    103 C         180.9941    0.9166   79.9784 C.3      17        0    0.0000
    104 C         180.8492    1.4719   78.5572 C.3      17        0    0.0000
    105 H         180.4426    1.5472   80.6867 H        17        0    0.0000
    106 H         182.0466    0.9424   80.2868 H        17        0    0.0000
    107 H         179.7878    1.5805   78.3022 H        17        0    0.0000
    108 H         181.2916    2.4741   78.4981 H        17        0    0.0000
    109 C         181.5345    0.5533   77.4876 C.3      18        0    0.0000
    110 C         181.2693    1.0313   76.0558 C.3      18        0    0.0000
    111 H         182.6139    0.5285   77.6822 H        18        0    0.0000
    112 H         181.1677   -0.4727   77.6156 H        18        0    0.0000
    113 H         181.6556    0.2982   75.3368 H        18        0    0.0000
    114 H         180.1894    1.1076   75.8786 H        18        0    0.0000
    115 C         181.9290    2.4228   75.7623 C.3      19        0    0.0000
    116 C         181.7959    2.8299   74.2907 C.3      19        0    0.0000
    117 H         181.4612    3.1786   76.4055 H        19        0    0.0000
    118 H         182.9877    2.3792   76.0462 H        19        0    0.0000
    119 H         181.6689    1.9386   73.6639 H        19        0    0.0000
    120 H         180.8979    3.4443   74.1501 H        19        0    0.0000
    121 C         183.0423    3.6326   73.7813 C.3      20        0    0.0000
    122 C         182.8543    4.1512   72.3513 C.3      20        0    0.0000
    123 H         183.2262    4.4711   74.4644 H        20        0    0.0000
    124 H         183.9258    2.9844   73.8333 H        20        0    0.0000
    125 H         183.2062    3.4028   71.6305 H        20        0    0.0000
    126 H         181.7885    4.3098   72.1457 H        20        0    0.0000
    127 C         183.6227    5.4944   72.1007 C.3      21        0    0.0000
    128 C         183.4681    5.9918   70.6592 C.3      21        0    0.0000
    129 H         183.2497    6.2513   72.8018 H        21        0    0.0000
    130 H         184.6838    5.3438   72.3349 H        21        0    0.0000
    131 H         183.8381    5.2336   69.9580 H        21        0    0.0000
    132 H         182.4072    6.1456   70.4261 H        21        0    0.0000
    133 C         184.2403    7.3326   70.4073 C.3      22        0    0.0000
    134 C         183.9075    7.9471   69.0433 C.3      22        0    0.0000
    135 H         183.9923    8.0394   71.2089 H        22        0    0.0000
    136 H         185.3177    7.1392   70.4800 H        22        0    0.0000
    137 H         184.2121    7.2656   68.2393 H        22        0    0.0000
    138 H         182.8233    8.0836   68.9466 H        22        0    0.0000
    139 C         184.6122    9.3306   68.8270 C.3      23        0    0.0000
    140 C         183.6522   10.3920   68.2785 C.3      23        0    0.0000
    141 H         185.0362    9.6645   69.7822 H        23        0    0.0000
    142 H         185.4554    9.1942   68.1386 H        23        0    0.0000
    143 H         183.7105   10.4219   67.1834 H        23        0    0.0000
    144 H         182.6174   10.1302   68.5318 H        23        0    0.0000
    145 C         183.9637   11.8220   68.8403 C.3      24        0    0.0000
    146 C         184.9420   12.5956   67.9496 C.3      24        0    0.0000
    147 H         183.0222   12.3771   68.9358 H        24        0    0.0000
    148 H         184.3747   11.7224   69.8526 H        24        0    0.0000
    149 H         184.9521   12.1660   66.9403 H        24        0    0.0000
    150 H         184.6130   13.6370   67.8455 H        24        0    0.0000
    151 C         186.4024   12.5816   68.5193 C.3      25        0    0.0000
    152 C         186.9532   13.9947   68.7404 C.3      25        0    0.0000
    153 H         186.4082   12.0236   69.4638 H        25        0    0.0000
    154 H         187.0479   12.0308   67.8240 H        25        0    0.0000
    155 H         187.5673   14.2975   67.8833 H        25        0    0.0000
    156 H         186.1276   14.7142   68.8062 H        25        0    0.0000
    157 C         187.8184   14.0980   70.0435 C.3      26        0    0.0000
    158 C         187.5525   15.3947   70.8161 C.3      26        0    0.0000
    159 H         187.6042   13.2304   70.6799 H        26        0    0.0000
    160 H         188.8789   14.0339   69.7699 H        26        0    0.0000
    161 H         188.0997   16.2263   70.3549 H        26        0    0.0000
    162 H         186.4872   15.6515   70.7646 H        26        0    0.0000
    163 C         187.9738   15.2861   72.3221 C.3      27        0    0.0000
    164 C         188.1239   16.6603   72.9839 C.3      27        0    0.0000
    165 H         187.2235   14.6908   72.8572 H        27        0    0.0000
    166 H         188.9189   14.7326   72.3859 H        27        0    0.0000
    167 H         188.8143   17.2842   72.4029 H        27        0    0.0000
    168 H         187.1586   17.1816   72.9915 H        27        0    0.0000
    169 C         188.6535   16.5563   74.4557 C.3      28        0    0.0000
    170 C         188.5219   17.8810   75.2153 C.3      28        0    0.0000
    171 H         188.0974   15.7671   74.9767 H        28        0    0.0000
    172 H         189.7034   16.2389   74.4321 H        28        0    0.0000
    173 H         189.1248   18.6564   74.7266 H        28        0    0.0000
    174 H         187.4814   18.2278   75.1892 H        28        0    0.0000
    175 C         188.9755   17.7559   76.7107 C.3      29        0    0.0000
    176 C         188.7608   19.0560   77.4934 C.3      29        0    0.0000
    177 H         188.4183   16.9367   77.1819 H        29        0    0.0000
    178 H         190.0349   17.4720   76.7363 H        29        0    0.0000
    179 H         189.3374   19.8698   77.0364 H        29        0    0.0000
    180 H         187.7057   19.3530   77.4474 H        29        0    0.0000
    181 C         189.1825   18.9206   78.9972 C.3      30        0    0.0000
    182 C         188.1173   19.4723   79.9511 C.3      30        0    0.0000
    183 H         189.3729   17.8628   79.2172 H        30        0    0.0000
    184 H         190.1319   19.4494   79.1472 H        30        0    0.0000
    185 H         188.1279   20.5692   79.9330 H        30        0    0.0000
    186 H         187.1186   19.1615   79.6200 H        30        0    0.0000
    187 C         188.3336   18.9892   81.4266 C.3      31        0    0.0000
    188 C         188.5918   20.1549   82.3876 C.3      31        0    0.0000
    189 H         187.4485   18.4260   81.7477 H        31        0    0.0000
    190 H         189.1778   18.2890   81.4493 H        31        0    0.0000
    191 H         189.1709   20.9377   81.8823 H        31        0    0.0000
    192 H         187.6409   20.6116   82.6890 H        31        0    0.0000
    193 C         189.3661   19.7042   83.6739 C.3      32        0    0.0000
    194 C         188.4764   19.7172   84.9219 C.3      32        0    0.0000
    195 H         189.7689   18.6971   83.5095 H        32        0    0.0000
    196 H         190.2273   20.3681   83.8190 H        32        0    0.0000
    197 H         188.4777   20.7165   85.3744 H        32        0    0.0000
    198 H         187.4376   19.4978   84.6456 H        32        0    0.0000
    199 C         188.9443   18.6755   85.9959 C.3      33        0    0.0000
    200 C         188.6352   19.1358   87.4248 C.3      33        0    0.0000
    201 H         188.4526   17.7156   85.7952 H        33        0    0.0000
    202 H         190.0222   18.5077   85.8797 H        33        0    0.0000
    203 H         188.9757   20.1686   87.5692 H        33        0    0.0000
    204 H         187.5513   19.1348   87.5940 H        33        0    0.0000
    205 C         189.3158   18.2238   88.5030 C.3      34        0    0.0000
    206 C         189.0015   18.6803   89.9319 C.3      34        0    0.0000
    207 H         188.9789   17.1903   88.3556 H        34        0    0.0000
    208 H         190.4001   18.2285   88.3365 H        34        0    0.0000
    209 H         189.3437   19.7120   90.0811 H        34        0    0.0000
    210 H         187.9169   18.6813   90.0965 H        34        0    0.0000
    211 C         189.6754   17.7636   91.0103 C.3      35        0    0.0000
    212 C         189.3516   18.2131   92.4393 C.3      35        0    0.0000
    213 H         189.3399   16.7306   90.8557 H        35        0    0.0000
    214 H         190.7608   17.7694   90.8510 H        35        0    0.0000
    215 H         189.6910   19.2446   92.5952 H        35        0    0.0000
    216 H         188.2659   18.2115   92.5972 H        35        0    0.0000
    217 C         190.0204   17.2926   93.5176 C.3      36        0    0.0000
    218 C         189.6947   17.7408   94.9466 C.3      36        0    0.0000
    219 H         189.6822   16.2609   93.3607 H        36        0    0.0000
    220 H         191.1062   17.2956   93.3607 H        36        0    0.0000
    221 H         190.0362   18.7713   95.1047 H        36        0    0.0000
    222 H         188.6087   17.7415   95.1023 H        36        0    0.0000
    223 C         190.3592   16.8172   96.0250 C.3      37        0    0.0000
    224 C         190.0369   17.2679   97.4540 C.3      37        0    0.0000
    225 H         190.0153   15.7873   95.8688 H        37        0    0.0000
    226 H         191.4449   16.8142   95.8674 H        37        0    0.0000
    227 H         190.3766   18.2995   97.6087 H        37        0    0.0000
    228 H         188.9514   17.2664   97.6131 H        37        0    0.0000
    229 C         190.7069   16.3482   98.5323 C.3      38        0    0.0000
    230 C         190.3822   16.7972   99.9613 C.3      38        0    0.0000
    231 H         190.3689   15.3163   98.3763 H        38        0    0.0000
    232 H         191.7925   16.3514   98.3746 H        38        0    0.0000
    233 H         190.7493   17.8175  100.1277 H        38        0    0.0000
    234 H         189.2955   16.8254  100.1090 H        38        0    0.0000
    235 C         191.0141   15.8507  101.0395 C.3      39        0    0.0000
    236 C         190.6934   16.3024  102.4685 C.3      39        0    0.0000
    237 H         190.6443   14.8310  100.8753 H        39        0    0.0000
    238 H         192.1005   15.8197  100.8896 H        39        0    0.0000
    239 H         189.6348   16.1207  102.6918 H        39        0    0.0000
    240 H         191.2731   15.7117  103.1887 H        39        0    0.0000
    241 C         191.0041   17.8221  102.6951 C.3      40        0    0.0000
    242 C         190.5692   18.3031  104.0839 C.3      40        0    0.0000
    243 H         192.0802   17.9870  102.5599 H        40        0    0.0000
    244 H         190.4957   18.4066  101.9183 H        40        0    0.0000
    245 H         191.3912   18.8437  104.5692 H        40        0    0.0000
    246 H         189.7365   19.0116  103.9929 H        40        0    0.0000
    247 C         190.1261   17.1191  105.0109 C.3      41        0    0.0000
    248 C         190.0412   17.5349  106.4836 C.3      41        0    0.0000
    249 H         189.1526   16.7470  104.6683 H        41        0    0.0000
    250 H         190.8382   16.2928  104.8938 H        41        0    0.0000
    251 H         190.8545   18.2302  106.7257 H        41        0    0.0000
    252 H         189.1024   18.0713  106.6695 H        41        0    0.0000
    253 C         190.1215   16.3060  107.4535 C.3      42        0    0.0000
    254 C         190.0557   16.7235  108.9268 C.3      42        0    0.0000
    255 H         189.2999   15.6174  107.2206 H        42        0    0.0000
    256 H         191.0538   15.7617  107.2581 H        42        0    0.0000
    257 H         189.0429   17.0631  109.1766 H        42        0    0.0000
    258 H         190.2670   15.8616  109.5718 H        42        0    0.0000
    259 C         191.0707   17.8691  109.2656 C.3      43        0    0.0000
    260 C         191.0397   18.2526  110.7491 C.3      43        0    0.0000
    261 H         192.0792   17.5432  108.9822 H        43        0    0.0000
    262 H         190.8366   18.7436  108.6460 H        43        0    0.0000
    263 H         192.0163   18.0563  111.2089 H        43        0    0.0000
    264 H         190.8519   19.3282  110.8558 H        43        0    0.0000
    265 C         189.9403   17.4665  111.5432 C.3      44        0    0.0000
    266 C         190.0667   17.6615  113.0581 C.3      44        0    0.0000
    267 H         188.9520   17.7992  111.2023 H        44        0    0.0000
    268 H         190.0175   16.4010  111.2933 H        44        0    0.0000
    269 H         191.1046   17.9004  113.3213 H        44        0    0.0000
    270 H         189.4559   18.5141  113.3799 H        44        0    0.0000
    271 C         189.6220   16.3900  113.8600 C.3      45        0    0.0000
    272 C         189.7303   16.5917  115.3755 C.3      45        0    0.0000
    273 H         188.5887   16.1429  113.5863 H        45        0    0.0000
    274 H         190.2422   15.5405  113.5483 H        45        0    0.0000
    275 H         189.2710   15.7455  115.9013 H        45        0    0.0000
    276 H         190.7848   16.6153  115.6773 H        45        0    0.0000
    277 C         189.0392   17.9165  115.8495 C.3      46        0    0.0000
    278 C         189.2868   18.2015  117.3349 C.3      46        0    0.0000
    279 H         189.4130   18.7482  115.2394 H        46        0    0.0000
    280 H         187.9620   17.8425  115.6551 H        46        0    0.0000
    281 H         189.9514   19.0672  117.4461 H        46        0    0.0000
    282 H         188.3434   18.4629  117.8301 H        46        0    0.0000
    283 C         189.9243   16.9764  118.0767 C.3      47        0    0.0000
    284 C         190.0933   17.2306  119.5786 C.3      47        0    0.0000
    285 H         189.2912   16.0955  117.9131 H        47        0    0.0000
    286 H         190.8971   16.7542  117.6209 H        47        0    0.0000
    287 H         190.4383   16.3168  120.0783 H        47        0    0.0000
    288 H         190.8648   17.9921  119.7468 H        47        0    0.0000
    289 C         188.7605   17.7037  120.2548 C.3      48        0    0.0000
    290 C         188.9461   18.0263  121.7416 C.3      48        0    0.0000
    291 H         188.3878   18.5872  119.7219 H        48        0    0.0000
    292 H         188.0036   16.9190  120.1318 H        48        0    0.0000
    293 H         188.7514   19.0906  121.9227 H        48        0    0.0000
    294 H         188.2183   17.4663  122.3418 H        48        0    0.0000
    295 C         190.3894   17.6833  122.2482 C.3      49        0    0.0000
    296 C         190.6478   18.2082  123.6649 C.3      49        0    0.0000
    297 H         190.5249   16.5950  122.2198 H        49        0    0.0000
    298 H         191.1200   18.1101  121.5499 H        49        0    0.0000
    299 H         190.5123   19.2965  123.6933 H        49        0    0.0000
    300 H         189.9171   17.7814  124.3632 H        49        0    0.0000
    301 H         191.6513   17.9697  124.0172 H        49        0    0.0000
    302 H         179.2798    1.2287  121.7450 H         0        0    0.0000
@<TRIPOS>BOND
     1     1     2      1
     2     1     3      1
     3     1     4      1
     4     1   302      H
     5     2     5      1
     6     2     6      1
     7     2     7      1
     8     7     8      1
     9     7     9      1
    10     7    10      1
    11     8    11      1
    12     8    12      1
    13     8    13      1
    14    13    14      1
    15    13    15      1
    16    13    16      1
    17    14    17      1
    18    14    18      1
    19    14    19      1
    20    19    20      1
    21    19    21      1
    22    19    22      1
    23    20    23      1
    24    20    24      1
    25    20    25      1
    26    25    26      1
    27    25    27      1
    28    25    28      1
    29    26    29      1
    30    26    30      1
    31    26    31      1
    32    31    32      1
    33    31    33      1
    34    31    34      1
    35    32    35      1
    36    32    36      1
    37    32    37      1
    38    37    38      1
    39    37    39      1
    40    37    40      1
    41    38    41      1
    42    38    42      1
    43    38    43      1
    44    43    44      1
    45    43    45      1
    46    43    46      1
    47    44    47      1
    48    44    48      1
    49    44    49      1
    50    49    50      1
    51    49    51      1
    52    49    52      1
    53    50    53      1
    54    50    54      1
    55    50    55      1
    56    55    56      1
    57    55    57      1
    58    55    58      1
    59    56    59      1
    60    56    60      1
    61    56    61      1
    62    61    62      1
    63    61    63      1
    64    61    64      1
    65    62    65      1
    66    62    66      1
    67    62    67      1
    68    67    68      1
    69    67    69      1
    70    67    70      1
    71    68    71      1
    72    68    72      1
    73    68    73      1
    74    73    74      1
    75    73    75      1
    76    73    76      1
    77    74    77      1
    78    74    78      1
    79    74    79      1
    80    79    80      1
    81    79    81      1
    82    79    82      1
    83    80    83      1
    84    80    84      1
    85    80    85      1
    86    85    86      1
    87    85    87      1
    88    85    88      1
    89    86    89      1
    90    86    90      1
    91    86    91      1
    92    91    92      1
    93    91    93      1
    94    91    94      1
    95    92    95      1
    96    92    96      1
    97    92    97      1
    98    97    98      1
    99    97    99      1
   100    97   100      1
   101    98   101      1
   102    98   102      1
   103    98   103      1
   104   103   104      1
   105   103   105      1
   106   103   106      1
   107   104   107      1
   108   104   108      1
   109   104   109      1
   110   109   110      1
   111   109   111      1
   112   109   112      1
   113   110   113      1
   114   110   114      1
   115   110   115      1
   116   115   116      1
   117   115   117      1
   118   115   118      1
   119   116   119      1
   120   116   120      1
   121   116   121      1
   122   121   122      1
   123   121   123      1
   124   121   124      1
   125   122   125      1
   126   122   126      1
   127   122   127      1
   128   127   128      1
   129   127   129      1
   130   127   130      1
   131   128   131      1
   132   128   132      1
   133   128   133      1
   134   133   134      1
   135   133   135      1
   136   133   136      1
   137   134   137      1
   138   134   138      1
   139   134   139      1
   140   139   140      1
   141   139   141      1
   142   139   142      1
   143   140   143      1
   144   140   144      1
   145   140   145      1
   146   145   146      1
   147   145   147      1
   148   145   148      1
   149   146   149      1
   150   146   150      1
   151   146   151      1
   152   151   152      1
   153   151   153      1
   154   151   154      1
   155   152   155      1
   156   152   156      1
   157   152   157      1
   158   157   158      1
   159   157   159      1
   160   157   160      1
   161   158   161      1
   162   158   162      1
   163   158   163      1
   164   163   164      1
   165   163   165      1
   166   163   166      1
   167   164   167      1
   168   164   168      1
   169   164   169      1
   170   169   170      1
   171   169   171      1
   172   169   172      1
   173   170   173      1
   174   170   174      1
   175   170   175      1
   176   175   176      1
   177   175   177      1
   178   175   178      1
   179   176   179      1
   180   176   180      1
   181   176   181      1
   182   181   182      1
   183   181   183      1
   184   181   184      1
   185   182   185      1
   186   182   186      1
   187   182   187      1
   188   187   188      1
   189   187   189      1
   190   187   190      1
   191   188   191      1
   192   188   192      1
   193   188   193      1
   194   193   194      1
   195   193   195      1
   196   193   196      1
   197   194   197      1
   198   194   198      1
   199   194   199      1
   200   199   200      1
   201   199   201      1
   202   199   202      1
   203   200   203      1
   204   200   204      1
   205   200   205      1
   206   205   206      1
   207   205   207      1
   208   205   208      1
   209   206   209      1
   210   206   210      1
   211   206   211      1
   212   211   212      1
   213   211   213      1
   214   211   214      1
   215   212   215      1
   216   212   216      1
   217   212   217      1
   218   217   218      1
   219   217   219      1
   220   217   220      1
   221   218   221      1
   222   218   222      1
   223   218   223      1
   224   223   224      1
   225   223   225      1
   226   223   226      1
   227   224   227      1
   228   224   228      1
   229   224   229      1
   230   229   230      1
   231   229   231      1
   232   229   232      1
   233   230   233      1
   234   230   234      1
   235   230   235      1
   236   235   236      1
   237   235   237      1
   238   235   238      1
   239   236   239      1
   240   236   240      1
   241   236   241      1
   242   241   242      1
   243   241   243      1
   244   241   244      1
   245   242   245      1
   246   242   246      1
   247   242   247      1
   248   247   248      1
   249   247   249      1
   250   247   250      1
   251   248   251      1
   252   248   252      1
   253   248   253      1
   254   253   254      1
   255   253   255      1
   256   253   256      1
   257   254   257      1
   258   254   258      1
   259   254   259      1
   260   259   260      1
   261   259   261      1
   262   259   262      1
   263   260   263      1
   264   260   264      1
   265   260   265      1
   266   265   266      1
   267   265   267      1
   268   265   268      1
   269   266   269      1
   270   266   270      1
   271   266   271      1
   272   271   272      1
   273   271   273      1
   274   271   274      1
   275   272   275      1
   276   272   276      1
   277   272   277      1
   278   277   278      1
   279   277   279      1
   280   277   280      1
   281   278   281      1
   282   278   282      1
   283   278   283      1
   284   283   284      1
   285   283   285      1
   286   283   286      1
   287   284   287      1
   288   284   288      1
   289   284   289      1
   290   289   290      1
   291   289   291      1
   292   289   292      1
   293   290   293      1
   294   290   294      1
   295   290   295      1
   296   295   296      1
   297   295   297      1
   298   295   298      1
   299   296   299      1
   300   296   300      1
   301   296   301      H
