###
### Created by PolyChef-cpp17 on Thu Feb 27 19:40:29 2025
###

@<TRIPOS>MOLECULE
NO_INFO
1178 1177 1 0 0
SMALL
USER_CHARGES


@<TRIPOS>ATOM
      1 C         169.2798  122.4687  -39.3449 C.3       0        0    0.0000
      2 C         167.8706  122.3082  -38.7641 C.3       0        0    0.0000
      3 H         169.9271  121.6566  -38.9913 H         0        0    0.0000
      4 H         169.7280  123.4055  -38.9913 H         0        0    0.0000
      5 H         167.3717  123.2839  -38.7122 H         0        0    0.0000
      6 H         167.2614  121.6776  -39.4236 H         0        0    0.0000
      7 C         167.8874  121.6725  -37.3313 C.3       1        0    0.0000
      8 C         169.1656  122.0159  -36.5584 C.3       1        0    0.0000
      9 H         167.0075  122.0238  -36.7782 H         1        0    0.0000
     10 H         167.7861  120.5842  -37.4260 H         1        0    0.0000
     11 H         170.0456  121.8397  -37.1894 H         1        0    0.0000
     12 H         169.1729  123.0816  -36.2981 H         1        0    0.0000
     13 C         169.3096  121.1738  -35.2440 C.3       2        0    0.0000
     14 C         170.2069  121.8613  -34.2091 C.3       2        0    0.0000
     15 H         168.3113  121.0032  -34.8223 H         2        0    0.0000
     16 H         169.7167  120.1874  -35.4989 H         2        0    0.0000
     17 H         171.2616  121.7391  -34.4853 H         2        0    0.0000
     18 H         170.0077  122.9400  -34.1958 H         2        0    0.0000
     19 C         169.9934  121.2903  -32.7648 C.3       3        0    0.0000
     20 C         170.6223  122.1822  -31.6887 C.3       3        0    0.0000
     21 H         168.9169  121.1830  -32.5826 H         3        0    0.0000
     22 H         170.4232  120.2821  -32.7161 H         3        0    0.0000
     23 H         171.7115  122.2139  -31.8158 H         3        0    0.0000
     24 H         170.2624  123.2129  -31.7970 H         3        0    0.0000
     25 C         170.2970  121.6831  -30.2387 C.3       4        0    0.0000
     26 C         170.9067  122.5880  -29.1625 C.3       4        0    0.0000
     27 H         169.2077  121.6354  -30.1172 H         4        0    0.0000
     28 H         170.6718  120.6583  -30.1251 H         4        0    0.0000
     29 H         171.9968  122.6297  -29.2794 H         4        0    0.0000
     30 H         170.5378  123.6144  -29.2807 H         4        0    0.0000
     31 C         170.5726  122.0948  -27.7124 C.3       5        0    0.0000
     32 C         171.1922  122.9931  -26.6362 C.3       5        0    0.0000
     33 H         169.4826  122.0614  -27.5927 H         5        0    0.0000
     34 H         170.9339  121.0654  -27.5970 H         5        0    0.0000
     35 H         172.2820  123.0284  -26.7573 H         5        0    0.0000
     36 H         170.8291  124.0220  -26.7503 H         5        0    0.0000
     37 C         170.8607  122.4981  -25.1862 C.3       6        0    0.0000
     38 C         171.4418  123.4219  -24.1100 C.3       6        0    0.0000
     39 H         169.7713  122.4309  -25.0759 H         6        0    0.0000
     40 H         171.2533  121.4814  -25.0612 H         6        0    0.0000
     41 H         172.5320  123.4842  -24.2165 H         6        0    0.0000
     42 H         171.0540  124.4400  -24.2388 H         6        0    0.0000
     43 C         171.1030  122.9316  -22.6601 C.3       7        0    0.0000
     44 C         172.2106  123.2738  -21.6576 C.3       7        0    0.0000
     45 H         170.1563  123.3877  -22.3449 H         7        0    0.0000
     46 H         170.9381  121.8473  -22.6829 H         7        0    0.0000
     47 H         173.1809  122.9304  -22.0373 H         7        0    0.0000
     48 H         172.2864  124.3616  -21.5374 H         7        0    0.0000
     49 C         171.9604  122.6264  -20.2519 C.3       8        0    0.0000
     50 C         171.9974  123.6605  -19.1213 C.3       8        0    0.0000
     51 H         170.9885  122.1177  -20.2649 H         8        0    0.0000
     52 H         172.7187  121.8527  -20.0790 H         8        0    0.0000
     53 H         173.0361  123.8726  -18.8393 H         8        0    0.0000
     54 H         171.5642  124.6083  -19.4641 H         8        0    0.0000
     55 C         171.2170  123.1789  -17.8499 C.3       9        0    0.0000
     56 C         172.0752  123.2451  -16.5818 C.3       9        0    0.0000
     57 H         170.3198  123.7988  -17.7298 H         9        0    0.0000
     58 H         170.8700  122.1515  -18.0161 H         9        0    0.0000
     59 H         173.0843  122.8686  -16.7905 H         9        0    0.0000
     60 H         172.1885  124.2872  -16.2583 H         9        0    0.0000
     61 C         171.4595  122.4142  -15.4037 C.3      10        0    0.0000
     62 C         171.7935  123.0139  -14.0334 C.3      10        0    0.0000
     63 H         170.3718  122.3637  -15.5372 H        10        0    0.0000
     64 H         171.8325  121.3843  -15.4646 H        10        0    0.0000
     65 H         172.8704  122.9339  -13.8401 H        10        0    0.0000
     66 H         171.5499  124.0835  -14.0214 H        10        0    0.0000
     67 C         171.0174  122.3058  -12.8698 C.3      11        0    0.0000
     68 C         171.5003  122.7608  -11.4882 C.3      11        0    0.0000
     69 H         169.9461  122.5141  -12.9813 H        11        0    0.0000
     70 H         171.1396  121.2204  -12.9724 H        11        0    0.0000
     71 H         172.5798  122.5908  -11.3923 H        11        0    0.0000
     72 H         171.3396  123.8396  -11.3700 H        11        0    0.0000
     73 C         170.7651  122.0099  -10.3250 C.3      12        0    0.0000
     74 C         171.2326  122.4803   -8.9432 C.3      12        0    0.0000
     75 H         169.6844  122.1669  -10.4301 H        12        0    0.0000
     76 H         170.9389  120.9323  -10.4342 H        12        0    0.0000
     77 H         172.3121  122.3173   -8.8357 H        12        0    0.0000
     78 H         171.0646  123.5591   -8.8364 H        12        0    0.0000
     79 C         170.4909  121.7359   -7.7799 C.3      13        0    0.0000
     80 C         170.9697  122.1948   -6.3982 C.3      13        0    0.0000
     81 H         169.4122  121.9085   -7.8807 H        13        0    0.0000
     82 H         170.6491  120.6562   -7.8934 H        13        0    0.0000
     83 H         172.0502  122.0315   -6.3011 H        13        0    0.0000
     84 H         170.8022  123.2726   -6.2809 H        13        0    0.0000
     85 C         170.2381  121.4403   -5.2350 C.3      14        0    0.0000
     86 C         170.7716  121.8426   -3.8557 C.3      14        0    0.0000
     87 H         169.1632  121.6501   -5.2985 H        14        0    0.0000
     88 H         170.3575  120.3600   -5.3841 H        14        0    0.0000
     89 H         171.8487  121.6430   -3.7961 H        14        0    0.0000
     90 H         170.6420  122.9211   -3.7022 H        14        0    0.0000
     91 C         170.0507  121.0765   -2.6933 C.3      15        0    0.0000
     92 C         170.4066  121.6445   -1.3150 C.3      15        0    0.0000
     93 H         168.9668  121.1297   -2.8537 H        15        0    0.0000
     94 H         170.3252  120.0157   -2.7453 H        15        0    0.0000
     95 H         171.3082  121.1541   -0.9274 H        15        0    0.0000
     96 H         170.6399  122.7133   -1.3973 H        15        0    0.0000
     97 C         169.2454  121.4592   -0.2782 C.3      16        0    0.0000
     98 C         169.3404  122.4537    0.8841 C.3      16        0    0.0000
     99 H         168.2860  121.5775   -0.7970 H        16        0    0.0000
    100 H         169.2727  120.4310    0.1032 H        16        0    0.0000
    101 H         168.5905  122.2126    1.6477 H        16        0    0.0000
    102 H         170.3211  122.3730    1.3691 H        16        0    0.0000
    103 C         169.1280  123.9351    0.4174 C.3      17        0    0.0000
    104 C         169.0306  124.9078    1.5978 C.3      17        0    0.0000
    105 H         169.9592  124.2218   -0.2387 H        17        0    0.0000
    106 H         168.2154  123.9873   -0.1893 H        17        0    0.0000
    107 H         168.5241  124.4246    2.4426 H        17        0    0.0000
    108 H         170.0351  125.1786    1.9459 H        17        0    0.0000
    109 C         168.2544  126.2179    1.2257 C.3      18        0    0.0000
    110 C         167.9264  127.0686    2.4577 C.3      18        0    0.0000
    111 H         168.8593  126.7983    0.5180 H        18        0    0.0000
    112 H         167.3308  125.9446    0.7005 H        18        0    0.0000
    113 H         167.5599  126.4286    3.2699 H        18        0    0.0000
    114 H         168.8348  127.5592    2.8287 H        18        0    0.0000
    115 C         166.8485  128.1651    2.1527 C.3      19        0    0.0000
    116 C         166.3387  128.8486    3.4263 C.3      19        0    0.0000
    117 H         167.2835  128.9097    1.4745 H        19        0    0.0000
    118 H         166.0129  127.6997    1.6153 H        19        0    0.0000
    119 H         165.8758  128.1086    4.0908 H        19        0    0.0000
    120 H         167.1783  129.2873    3.9796 H        19        0    0.0000
    121 C         165.2930  129.9752    3.1181 C.3      20        0    0.0000
    122 C         165.4523  131.1849    4.0456 C.3      20        0    0.0000
    123 H         165.4058  130.2857    2.0720 H        20        0    0.0000
    124 H         164.2835  129.5568    3.2155 H        20        0    0.0000
    125 H         164.9081  131.0146    4.9828 H        20        0    0.0000
    126 H         166.5078  131.3170    4.3137 H        20        0    0.0000
    127 C         164.9279  132.5090    3.3903 C.3      21        0    0.0000
    128 C         165.3666  133.7550    4.1674 C.3      21        0    0.0000
    129 H         165.2940  132.5615    2.3574 H        21        0    0.0000
    130 H         163.8330  132.4665    3.3346 H        21        0    0.0000
    131 H         164.6536  133.9658    4.9740 H        21        0    0.0000
    132 H         166.3386  133.5780    4.6443 H        21        0    0.0000
    133 C         165.4778  135.0200    3.2480 C.3      22        0    0.0000
    134 C         165.9649  136.2544    4.0149 C.3      22        0    0.0000
    135 H         166.1627  134.7967    2.4206 H        22        0    0.0000
    136 H         164.4964  135.2186    2.7997 H        22        0    0.0000
    137 H         166.1544  137.0798    3.3176 H        22        0    0.0000
    138 H         165.1862  136.5989    4.7067 H        22        0    0.0000
    139 C         167.2740  135.9698    4.8289 C.3      23        0    0.0000
    140 C         167.6725  137.1515    5.7199 C.3      23        0    0.0000
    141 H         167.1219  135.0719    5.4406 H        23        0    0.0000
    142 H         168.0841  135.7386    4.1261 H        23        0    0.0000
    143 H         167.5277  136.8919    6.7759 H        23        0    0.0000
    144 H         168.7391  137.3749    5.5937 H        23        0    0.0000
    145 C         166.8443  138.4432    5.3989 C.3      24        0    0.0000
    146 C         167.2935  139.6446    6.2379 C.3      24        0    0.0000
    147 H         166.9451  138.6716    4.3307 H        24        0    0.0000
    148 H         165.7820  138.2357    5.5778 H        24        0    0.0000
    149 H         166.7729  140.5513    5.9056 H        24        0    0.0000
    150 H         167.0206  139.4922    7.2895 H        24        0    0.0000
    151 C         168.8395  139.8877    6.1472 C.3      25        0    0.0000
    152 C         169.3240  140.9306    7.1605 C.3      25        0    0.0000
    153 H         169.3576  138.9347    6.3115 H        25        0    0.0000
    154 H         169.0877  140.2096    5.1282 H        25        0    0.0000
    155 H         170.4130  141.0441    7.0920 H        25        0    0.0000
    156 H         168.8899  141.9109    6.9279 H        25        0    0.0000
    157 C         168.9473  140.5478    8.6333 C.3      26        0    0.0000
    158 C         169.5851  141.4906    9.6597 C.3      26        0    0.0000
    159 H         167.8551  140.5647    8.7347 H        26        0    0.0000
    160 H         169.2654  139.5151    8.8225 H        26        0    0.0000
    161 H         169.8686  142.4346    9.1781 H        26        0    0.0000
    162 H         168.8584  141.7419   10.4421 H        26        0    0.0000
    163 C         170.8556  140.8649   10.3320 C.3      27        0    0.0000
    164 C         171.3368  141.6813   11.5366 C.3      27        0    0.0000
    165 H         170.6224  139.8387   10.6421 H        27        0    0.0000
    166 H         171.6536  140.7940    9.5826 H        27        0    0.0000
    167 H         172.1474  142.3558   11.2342 H        27        0    0.0000
    168 H         170.5231  142.3147   11.9110 H        27        0    0.0000
    169 C         171.8472  140.7704   12.7059 C.3      28        0    0.0000
    170 C         172.2792  141.5848   13.9304 C.3      28        0    0.0000
    171 H         171.0495  140.0699   12.9824 H        28        0    0.0000
    172 H         172.6863  140.1647   12.3419 H        28        0    0.0000
    173 H         173.0319  142.3286   13.6410 H        28        0    0.0000
    174 H         171.4240  142.1419   14.3324 H        28        0    0.0000
    175 C         172.8724  140.6811   15.0657 C.3      29        0    0.0000
    176 C         173.3032  141.4953   16.2907 C.3      29        0    0.0000
    177 H         172.1201  139.9367   15.3545 H        29        0    0.0000
    178 H         173.7282  140.1246   14.6639 H        29        0    0.0000
    179 H         172.4199  141.8561   16.8322 H        29        0    0.0000
    180 H         173.8619  140.8588   16.9880 H        29        0    0.0000
    181 C         174.1953  142.7247   15.9031 C.3      30        0    0.0000
    182 C         174.3967  143.6893   17.0770 C.3      30        0    0.0000
    183 H         175.1660  142.3587   15.5462 H        30        0    0.0000
    184 H         173.7275  143.2496   15.0610 H        30        0    0.0000
    185 H         173.5803  143.5763   17.8011 H        30        0    0.0000
    186 H         175.3251  143.4462   17.6086 H        30        0    0.0000
    187 C         174.4570  145.1854   16.6130 C.3      31        0    0.0000
    188 C         174.7580  146.1415   17.7725 C.3      31        0    0.0000
    189 H         175.2247  145.2838   15.8354 H        31        0    0.0000
    190 H         173.5001  145.4497   16.1462 H        31        0    0.0000
    191 H         173.9476  146.1038   18.5111 H        31        0    0.0000
    192 H         175.6721  145.8275   18.2914 H        31        0    0.0000
    193 C         174.9340  147.6228   17.2907 C.3      32        0    0.0000
    194 C         175.4452  148.5399   18.4072 C.3      32        0    0.0000
    195 H         175.6300  147.6385   16.4428 H        32        0    0.0000
    196 H         173.9708  147.9891   16.9144 H        32        0    0.0000
    197 H         174.7134  148.5827   19.2235 H        32        0    0.0000
    198 H         176.3702  148.1331   18.8343 H        32        0    0.0000
    199 C         175.7213  149.9971   17.8994 C.3      33        0    0.0000
    200 C         176.2199  150.9176   19.0188 C.3      33        0    0.0000
    201 H         176.4602  149.9553   17.0896 H        33        0    0.0000
    202 H         174.7988  150.4005   17.4636 H        33        0    0.0000
    203 H         175.5119  150.9084   19.8568 H        33        0    0.0000
    204 H         177.1763  150.5497   19.4104 H        33        0    0.0000
    205 C         176.4081  152.3960   18.5327 C.3      34        0    0.0000
    206 C         176.7100  153.3541   19.6902 C.3      34        0    0.0000
    207 H         177.2222  152.4257   17.7978 H        34        0    0.0000
    208 H         175.4986  152.7144   18.0083 H        34        0    0.0000
    209 H         176.2472  152.9855   20.6141 H        34        0    0.0000
    210 H         177.7909  153.3939   19.8735 H        34        0    0.0000
    211 C         176.1912  154.8066   19.4099 C.3      35        0    0.0000
    212 C         176.3698  155.7307   20.6196 C.3      35        0    0.0000
    213 H         176.7281  155.2129   18.5437 H        35        0    0.0000
    214 H         175.1321  154.7557   19.1286 H        35        0    0.0000
    215 H         176.3778  155.1417   21.5450 H        35        0    0.0000
    216 H         177.3390  156.2415   20.5629 H        35        0    0.0000
    217 C         175.2355  156.8085   20.7164 C.3      36        0    0.0000
    218 C         175.4433  157.7662   21.8948 C.3      36        0    0.0000
    219 H         175.2015  157.3716   19.7755 H        36        0    0.0000
    220 H         174.2695  156.2975   20.8128 H        36        0    0.0000
    221 H         175.1249  157.2876   22.8292 H        36        0    0.0000
    222 H         176.5096  157.9985   22.0073 H        36        0    0.0000
    223 C         174.6501  159.1067   21.7179 C.3      37        0    0.0000
    224 C         174.8465  160.0586   22.9030 C.3      37        0    0.0000
    225 H         174.9760  159.5905   20.7888 H        37        0    0.0000
    226 H         173.5851  158.8738   21.5950 H        37        0    0.0000
    227 H         174.5147  159.5770   23.8313 H        37        0    0.0000
    228 H         175.9121  160.2865   23.0299 H        37        0    0.0000
    229 C         174.0604  161.4027   22.7221 C.3      38        0    0.0000
    230 C         174.2781  162.3653   23.8947 C.3      38        0    0.0000
    231 H         174.3780  161.8746   21.7840 H        38        0    0.0000
    232 H         172.9924  161.1760   22.6148 H        38        0    0.0000
    233 H         173.9223  161.9093   24.8268 H        38        0    0.0000
    234 H         175.3496  162.5595   24.0280 H        38        0    0.0000
    235 C         173.5390  163.7320   23.6865 C.3      39        0    0.0000
    236 C         173.8111  164.7192   24.8269 C.3      39        0    0.0000
    237 H         173.8582  164.1646   22.7303 H        39        0    0.0000
    238 H         172.4617  163.5422   23.6024 H        39        0    0.0000
    239 H         173.4590  164.3013   25.7782 H        39        0    0.0000
    240 H         174.8908  164.8812   24.9345 H        39        0    0.0000
    241 C         173.1132  166.1034   24.5938 C.3      40        0    0.0000
    242 C         173.4972  167.1345   25.6607 C.3      40        0    0.0000
    243 H         173.3857  166.4734   23.5976 H        40        0    0.0000
    244 H         172.0262  165.9548   24.5882 H        40        0    0.0000
    245 H         173.1628  166.7955   26.6491 H        40        0    0.0000
    246 H         174.5886  167.2323   25.7138 H        40        0    0.0000
    247 C         172.8768  168.5453   25.3740 C.3      41        0    0.0000
    248 C         173.5094  169.6440   26.2352 C.3      41        0    0.0000
    249 H         173.0073  168.7794   24.3101 H        41        0    0.0000
    250 H         171.7960  168.5000   25.5563 H        41        0    0.0000
    251 H         173.2609  169.4837   27.2917 H        41        0    0.0000
    252 H         174.6029  169.5992   26.1585 H        41        0    0.0000
    253 C         173.0317  171.0768   25.8156 C.3      42        0    0.0000
    254 C         173.8047  172.1829   26.5423 C.3      42        0    0.0000
    255 H         173.1506  171.1855   24.7304 H        42        0    0.0000
    256 H         171.9587  171.1675   26.0256 H        42        0    0.0000
    257 H         173.6773  172.0805   27.6271 H        42        0    0.0000
    258 H         174.8787  172.0860   26.3407 H        42        0    0.0000
    259 C         173.3371  173.6159   26.1117 C.3      43        0    0.0000
    260 C         173.9707  174.7161   26.9703 C.3      43        0    0.0000
    261 H         173.5925  173.7688   25.0558 H        43        0    0.0000
    262 H         172.2434  173.6669   26.1819 H        43        0    0.0000
    263 H         175.0540  174.7486   26.8006 H        43        0    0.0000
    264 H         173.5762  175.6966   26.6763 H        43        0    0.0000
    265 C         173.7051  174.5025   28.5004 C.3      44        0    0.0000
    266 C         174.4511  175.5228   29.3673 C.3      44        0    0.0000
    267 H         172.6257  174.5700   28.6847 H        44        0    0.0000
    268 H         174.0082  173.4840   28.7731 H        44        0    0.0000
    269 H         175.4454  175.7182   28.9468 H        44        0    0.0000
    270 H         173.9152  176.4800   29.3670 H        44        0    0.0000
    271 C         174.6157  175.0363   30.8485 C.3      45        0    0.0000
    272 C         175.3482  176.0632   31.7191 C.3      45        0    0.0000
    273 H         173.6221  174.8302   31.2654 H        45        0    0.0000
    274 H         175.1615  174.0847   30.8496 H        45        0    0.0000
    275 H         176.3588  176.2351   31.3283 H        45        0    0.0000
    276 H         174.8275  177.0281   31.6813 H        45        0    0.0000
    277 C         175.4559  175.6053   33.2145 C.3      46        0    0.0000
    278 C         176.1826  176.6352   34.0864 C.3      46        0    0.0000
    279 H         174.4455  175.4288   33.6038 H        46        0    0.0000
    280 H         175.9808  174.6427   33.2526 H        46        0    0.0000
    281 H         175.5262  176.9703   34.8990 H        46        0    0.0000
    282 H         177.0597  176.1759   34.5591 H        46        0    0.0000
    283 C         176.6486  177.8862   33.2647 C.3      47        0    0.0000
    284 C         177.3254  178.9413   34.1466 C.3      47        0    0.0000
    285 H         177.3377  177.5556   32.4776 H        47        0    0.0000
    286 H         175.7779  178.3213   32.7586 H        47        0    0.0000
    287 H         176.6455  179.2529   34.9492 H        47        0    0.0000
    288 H         178.2112  178.5135   34.6324 H        47        0    0.0000
    289 C         177.7586  180.2081   33.3311 C.3      48        0    0.0000
    290 C         178.4167  181.2719   34.2167 C.3      48        0    0.0000
    291 H         178.4503  179.8985   32.5379 H        48        0    0.0000
    292 H         176.8754  180.6271   32.8331 H        48        0    0.0000
    293 H         178.0120  181.2166   35.2349 H        48        0    0.0000
    294 H         179.4943  181.0818   34.2953 H        48        0    0.0000
    295 C         178.1985  182.7227   33.6643 C.3      49        0    0.0000
    296 C         178.8276  183.7890   34.5678 C.3      49        0    0.0000
    297 H         178.6252  182.7849   32.6556 H        49        0    0.0000
    298 H         177.1213  182.9039   33.5624 H        49        0    0.0000
    299 H         179.5320  184.4020   33.9919 H        49        0    0.0000
    300 H         178.0527  184.4685   34.9436 H        49        0    0.0000
    301 C         179.5849  183.1616   35.7887 C.3      50        0    0.0000
    302 C         180.0370  184.2218   36.7989 C.3      50        0    0.0000
    303 H         178.9258  182.4333   36.2773 H        50        0    0.0000
    304 H         180.4522  182.6020   35.4171 H        50        0    0.0000
    305 H         181.0848  184.4916   36.6175 H        50        0    0.0000
    306 H         179.4488  185.1389   36.6704 H        50        0    0.0000
    307 C         179.8908  183.7312   38.2806 C.3      51        0    0.0000
    308 C         180.3385  184.7932   39.2909 C.3      51        0    0.0000
    309 H         178.8438  183.4581   38.4610 H        51        0    0.0000
    310 H         180.4819  182.8161   38.4100 H        51        0    0.0000
    311 H         180.0773  184.4779   40.3087 H        51        0    0.0000
    312 H         181.4299  184.9009   39.2648 H        51        0    0.0000
    313 C         179.6860  186.1910   39.0120 C.3      52        0    0.0000
    314 C         180.3614  187.3158   39.8042 C.3      52        0    0.0000
    315 H         179.7448  186.4004   37.9367 H        52        0    0.0000
    316 H         178.6197  186.1404   39.2651 H        52        0    0.0000
    317 H         181.3652  187.0043   40.1185 H        52        0    0.0000
    318 H         180.4908  188.1994   39.1670 H        52        0    0.0000
    319 C         179.5385  187.7249   41.0742 C.3      53        0    0.0000
    320 C         180.0814  188.9980   41.7328 C.3      53        0    0.0000
    321 H         178.4901  187.8688   40.7851 H        53        0    0.0000
    322 H         179.5567  186.8939   41.7902 H        53        0    0.0000
    323 H         180.0180  188.9130   42.8247 H        53        0    0.0000
    324 H         181.1432  189.1248   41.4878 H        53        0    0.0000
    325 C         179.3017  190.2802   41.2797 C.3      54        0    0.0000
    326 C         179.5797  191.4812   42.1903 C.3      54        0    0.0000
    327 H         179.5831  190.5185   40.2464 H        54        0    0.0000
    328 H         178.2278  190.0560   41.2700 H        54        0    0.0000
    329 H         179.5787  191.1650   43.2408 H        54        0    0.0000
    330 H         180.5781  191.8864   41.9842 H        54        0    0.0000
    331 C         178.5226  192.6240   42.0057 C.3      55        0    0.0000
    332 C         178.6966  193.7478   43.0333 C.3      55        0    0.0000
    333 H         178.6112  193.0268   40.9891 H        55        0    0.0000
    334 H         177.5173  192.1924   42.0869 H        55        0    0.0000
    335 H         178.6415  193.3396   44.0501 H        55        0    0.0000
    336 H         179.6899  194.2019   42.9295 H        55        0    0.0000
    337 C         177.6104  194.8676   42.8787 C.3      56        0    0.0000
    338 C         177.8233  196.0231   43.8629 C.3      56        0    0.0000
    339 H         177.6332  195.2424   41.8479 H        56        0    0.0000
    340 H         176.6194  194.4222   43.0302 H        56        0    0.0000
    341 H         177.0558  196.7922   43.7117 H        56        0    0.0000
    342 H         177.7114  195.6647   44.8937 H        56        0    0.0000
    343 C         179.2370  196.6826   43.7079 C.3      57        0    0.0000
    344 C         179.4454  197.8457   44.6840 C.3      57        0    0.0000
    345 H         180.0046  195.9153   43.8678 H        57        0    0.0000
    346 H         179.3523  197.0332   42.6748 H        57        0    0.0000
    347 H         178.4990  198.3771   44.8436 H        57        0    0.0000
    348 H         179.7611  197.4636   45.6627 H        57        0    0.0000
    349 C         180.5180  198.8673   44.1705 C.3      58        0    0.0000
    350 C         180.7928  199.9810   45.1869 C.3      58        0    0.0000
    351 H         181.4449  198.3245   43.9474 H        58        0    0.0000
    352 H         180.1702  199.2992   43.2240 H        58        0    0.0000
    353 H         179.9054  200.6165   45.2977 H        58        0    0.0000
    354 H         180.9952  199.5477   46.1742 H        58        0    0.0000
    355 C         182.0084  200.8789   44.7703 C.3      59        0    0.0000
    356 C         182.2794  201.9963   45.7836 C.3      59        0    0.0000
    357 H         182.8968  200.2440   44.6638 H        59        0    0.0000
    358 H         181.8079  201.3086   43.7810 H        59        0    0.0000
    359 H         181.3892  202.6278   45.8943 H        59        0    0.0000
    360 H         182.4854  201.5663   46.7716 H        59        0    0.0000
    361 C         183.4901  202.8990   45.3629 C.3      60        0    0.0000
    362 C         183.7596  204.0179   46.3750 C.3      60        0    0.0000
    363 H         184.3807  202.2678   45.2539 H        60        0    0.0000
    364 H         183.2848  203.3276   44.3741 H        60        0    0.0000
    365 H         182.8691  204.6495   46.4836 H        60        0    0.0000
    366 H         183.9643  203.5894   47.3640 H        60        0    0.0000
    367 C         184.9707  204.9202   45.9548 C.3      61        0    0.0000
    368 C         185.2332  206.0458   46.9613 C.3      61        0    0.0000
    369 H         185.8630  204.2899   45.8541 H        61        0    0.0000
    370 H         184.7696  205.3423   44.9624 H        61        0    0.0000
    371 H         184.3388  206.6721   47.0670 H        61        0    0.0000
    372 H         185.4410  205.6235   47.9522 H        61        0    0.0000
    373 C         186.4384  206.9537   46.5362 C.3      62        0    0.0000
    374 C         187.2121  207.4950   47.7435 C.3      62        0    0.0000
    375 H         187.1081  206.3728   45.8900 H        62        0    0.0000
    376 H         186.0582  207.7850   45.9296 H        62        0    0.0000
    377 H         186.5839  208.1930   48.3106 H        62        0    0.0000
    378 H         187.4665  206.6745   48.4258 H        62        0    0.0000
    379 C         188.5313  208.2299   47.3228 C.3      63        0    0.0000
    380 C         188.6074  209.6539   47.8846 C.3      63        0    0.0000
    381 H         189.3898  207.6420   47.6705 H        63        0    0.0000
    382 H         188.5888  208.2541   46.2275 H        63        0    0.0000
    383 H         187.6003  210.0823   47.9613 H        63        0    0.0000
    384 H         189.0203  209.6358   48.9008 H        63        0    0.0000
    385 C         189.4912  210.5964   46.9968 C.3      64        0    0.0000
    386 C         190.7473  211.0769   47.7318 C.3      64        0    0.0000
    387 H         189.7726  210.0594   46.0825 H        64        0    0.0000
    388 H         188.8865  211.4565   46.6835 H        64        0    0.0000
    389 H         190.5029  211.9307   48.3759 H        64        0    0.0000
    390 H         191.1248  210.2841   48.3895 H        64        0    0.0000
    391 C         191.8886  211.4997   46.7438 C.3      65        0    0.0000
    392 C         192.6156  212.7679   47.2046 C.3      65        0    0.0000
    393 H         192.6009  210.6706   46.6507 H        65        0    0.0000
    394 H         191.4547  211.6555   45.7483 H        65        0    0.0000
    395 H         191.8867  213.5371   47.4885 H        65        0    0.0000
    396 H         193.2133  212.5547   48.0994 H        65        0    0.0000
    397 C         193.5574  213.3494   46.0945 C.3      66        0    0.0000
    398 C         194.4442  214.4834   46.6206 C.3      66        0    0.0000
    399 H         194.1802  212.5377   45.6984 H        66        0    0.0000
    400 H         192.9414  213.7093   45.2611 H        66        0    0.0000
    401 H         193.8216  215.3156   46.9718 H        66        0    0.0000
    402 H         195.0241  214.1371   47.4851 H        66        0    0.0000
    403 C         195.4342  215.0184   45.5294 C.3      67        0    0.0000
    404 C         195.3869  216.5449   45.4003 C.3      67        0    0.0000
    405 H         196.4507  214.6938   45.7845 H        67        0    0.0000
    406 H         195.1865  214.5517   44.5679 H        67        0    0.0000
    407 H         195.6881  217.0119   46.3463 H        67        0    0.0000
    408 H         196.1039  216.8806   44.6409 H        67        0    0.0000
    409 C         193.9596  217.0643   45.0124 C.3      68        0    0.0000
    410 C         193.9953  218.0218   43.8161 C.3      68        0    0.0000
    411 H         193.3193  216.2028   44.7856 H        68        0    0.0000
    412 H         193.5171  217.5654   45.8822 H        68        0    0.0000
    413 H         193.2311  218.8000   43.9342 H        68        0    0.0000
    414 H         194.9639  218.5352   43.7740 H        68        0    0.0000
    415 C         193.7563  217.2814   42.4552 C.3      69        0    0.0000
    416 C         192.7126  217.9893   41.5842 C.3      69        0    0.0000
    417 H         194.7103  217.2125   41.9179 H        69        0    0.0000
    418 H         193.4371  216.2527   42.6636 H        69        0    0.0000
    419 H         192.6560  219.0514   41.8534 H        69        0    0.0000
    420 H         193.0118  217.9472   40.5295 H        69        0    0.0000
    421 C         191.2870  217.3542   41.7309 C.3      70        0    0.0000
    422 C         190.6818  216.9664   40.3772 C.3      70        0    0.0000
    423 H         191.3582  216.4711   42.3779 H        70        0    0.0000
    424 H         190.6324  218.0692   42.2446 H        70        0    0.0000
    425 H         189.6217  217.2470   40.3448 H        70        0    0.0000
    426 H         191.1789  217.5194   39.5706 H        70        0    0.0000
    427 C         190.8070  215.4306   40.0886 C.3      71        0    0.0000
    428 C         189.4399  214.7559   39.9310 C.3      71        0    0.0000
    429 H         191.4033  215.2893   39.1786 H        71        0    0.0000
    430 H         191.3659  214.9613   40.9076 H        71        0    0.0000
    431 H         188.6756  215.5058   39.6919 H        71        0    0.0000
    432 H         189.4630  214.0507   39.0909 H        71        0    0.0000
    433 C         189.0048  213.9858   41.2253 C.3      72        0    0.0000
    434 C         188.5601  212.5501   40.9251 C.3      72        0    0.0000
    435 H         189.8438  213.9797   41.9320 H        72        0    0.0000
    436 H         188.1898  214.5387   41.7086 H        72        0    0.0000
    437 H         187.4678  212.5062   40.8325 H        72        0    0.0000
    438 H         188.9713  212.2225   39.9622 H        72        0    0.0000
    439 C         189.0139  211.5428   42.0372 C.3      73        0    0.0000
    440 C         187.8262  210.8412   42.7052 C.3      73        0    0.0000
    441 H         189.6858  210.8003   41.5890 H        73        0    0.0000
    442 H         189.6008  212.0860   42.7882 H        73        0    0.0000
    443 H         187.0484  211.5737   42.9545 H        73        0    0.0000
    444 H         187.3727  210.1246   42.0093 H        73        0    0.0000
    445 C         188.2428  210.0822   44.0119 C.3      74        0    0.0000
    446 C         189.2206  208.9358   43.7311 C.3      74        0    0.0000
    447 H         188.6941  210.7993   44.7088 H        74        0    0.0000
    448 H         187.3394  209.6951   44.4994 H        74        0    0.0000
    449 H         189.7111  209.0888   42.7618 H        74        0    0.0000
    450 H         190.0148  208.9249   44.4879 H        74        0    0.0000
    451 C         188.5109  207.5381   43.7233 C.3      75        0    0.0000
    452 C         189.3330  206.4733   42.9887 C.3      75        0    0.0000
    453 H         188.3321  207.2264   44.7598 H        75        0    0.0000
    454 H         187.5259  207.6442   43.2519 H        75        0    0.0000
    455 H         188.9778  206.3701   41.9559 H        75        0    0.0000
    456 H         190.3839  206.7830   42.9311 H        75        0    0.0000
    457 C         189.2564  205.0742   43.6915 C.3      76        0    0.0000
    458 C         188.0765  204.2352   43.1884 C.3      76        0    0.0000
    459 H         190.1987  204.5396   43.5188 H        76        0    0.0000
    460 H         189.1747  205.2266   44.7749 H        76        0    0.0000
    461 H         187.2421  204.8898   42.9078 H        76        0    0.0000
    462 H         188.3643  203.6861   42.2833 H        76        0    0.0000
    463 C         187.5752  203.2102   44.2634 C.3      77        0    0.0000
    464 C         187.6982  201.7595   43.7845 C.3      77        0    0.0000
    465 H         188.1537  203.3526   45.1846 H        77        0    0.0000
    466 H         186.5305  203.4380   44.5090 H        77        0    0.0000
    467 H         187.5320  201.7055   42.7015 H        77        0    0.0000
    468 H         188.7145  201.3883   43.9662 H        77        0    0.0000
    469 C         186.6776  200.8090   44.5004 C.3      78        0    0.0000
    470 C         187.3473  199.9345   45.5661 C.3      78        0    0.0000
    471 H         185.8869  201.4180   44.9560 H        78        0    0.0000
    472 H         186.1933  200.1773   43.7455 H        78        0    0.0000
    473 H         187.5795  198.9462   45.1503 H        78        0    0.0000
    474 H         188.3022  200.3797   45.8723 H        78        0    0.0000
    475 C         186.4459  199.7497   46.8353 C.3      79        0    0.0000
    476 C         185.6393  198.4472   46.7902 C.3      79        0    0.0000
    477 H         187.0839  199.7663   47.7276 H        79        0    0.0000
    478 H         185.7687  200.6089   46.9162 H        79        0    0.0000
    479 H         185.5656  198.0860   45.7569 H        79        0    0.0000
    480 H         186.1552  197.6653   47.3612 H        79        0    0.0000
    481 C         184.1929  198.6239   47.3681 C.3      80        0    0.0000
    482 C         183.6328  197.3174   47.9412 C.3      80        0    0.0000
    483 H         184.2149  199.3970   48.1461 H        80        0    0.0000
    484 H         183.5370  198.9969   46.5717 H        80        0    0.0000
    485 H         183.8899  196.4775   47.2838 H        80        0    0.0000
    486 H         184.0913  197.1068   48.9153 H        80        0    0.0000
    487 C         182.0756  197.3644   48.1153 C.3      81        0    0.0000
    488 C         181.5442  196.1697   48.9150 C.3      81        0    0.0000
    489 H         181.8038  198.3024   48.6151 H        81        0    0.0000
    490 H         181.6093  197.3898   47.1226 H        81        0    0.0000
    491 H         181.9444  195.2344   48.5046 H        81        0    0.0000
    492 H         181.8884  196.2302   49.9550 H        81        0    0.0000
    493 C         179.9783  196.0970   48.9045 C.3      82        0    0.0000
    494 C         179.4589  194.7056   49.2833 C.3      82        0    0.0000
    495 H         179.5847  196.8478   49.6008 H        82        0    0.0000
    496 H         179.6181  196.3739   47.9059 H        82        0    0.0000
    497 H         179.9317  193.9429   48.6521 H        82        0    0.0000
    498 H         179.7328  194.4711   50.3194 H        82        0    0.0000
    499 C         177.9026  194.5914   49.1338 C.3      83        0    0.0000
    500 C         177.4282  193.1345   49.0945 C.3      83        0    0.0000
    501 H         177.4274  195.1194   49.9698 H        83        0    0.0000
    502 H         177.5963  195.1116   48.2178 H        83        0    0.0000
    503 H         178.0348  192.5604   48.3832 H        83        0    0.0000
    504 H         177.5680  192.6668   50.0770 H        83        0    0.0000
    505 C         175.9196  193.0117   48.6865 C.3      84        0    0.0000
    506 C         175.5965  191.6513   48.0589 C.3      84        0    0.0000
    507 H         175.2984  193.1725   49.5764 H        84        0    0.0000
    508 H         175.6768  193.8177   47.9830 H        84        0    0.0000
    509 H         176.4209  191.3312   47.4098 H        84        0    0.0000
    510 H         175.4983  190.8895   48.8422 H        84        0    0.0000
    511 C         174.2743  191.6842   47.2174 C.3      85        0    0.0000
    512 C         174.0672  190.3978   46.4104 C.3      85        0    0.0000
    513 H         173.4271  191.8430   47.8961 H        85        0    0.0000
    514 H         174.3051  192.5499   46.5442 H        85        0    0.0000
    515 H         174.5440  190.4901   45.4267 H        85        0    0.0000
    516 H         174.5512  189.5538   46.9172 H        85        0    0.0000
    517 C         172.5495  190.0620   46.2067 C.3      86        0    0.0000
    518 C         172.3417  188.7178   45.5004 C.3      86        0    0.0000
    519 H         172.0550  190.0528   47.1860 H        86        0    0.0000
    520 H         172.0839  190.8681   45.6262 H        86        0    0.0000
    521 H         172.1852  188.8775   44.4263 H        86        0    0.0000
    522 H         173.2416  188.0981   45.5988 H        86        0    0.0000
    523 C         171.1176  187.9265   46.0772 C.3      87        0    0.0000
    524 C         170.9686  186.5410   45.4391 C.3      87        0    0.0000
    525 H         171.2393  187.8294   47.1632 H        87        0    0.0000
    526 H         170.2068  188.5159   45.9137 H        87        0    0.0000
    527 H         170.8890  186.6355   44.3490 H        87        0    0.0000
    528 H         171.8625  185.9370   45.6385 H        87        0    0.0000
    529 C         169.7105  185.7732   45.9729 C.3      88        0    0.0000
    530 C         169.5465  184.3987   45.3151 C.3      88        0    0.0000
    531 H         169.7996  185.6615   47.0607 H        88        0    0.0000
    532 H         168.8188  186.3860   45.7912 H        88        0    0.0000
    533 H         169.5043  184.5063   44.2242 H        88        0    0.0000
    534 H         170.4176  183.7695   45.5362 H        88        0    0.0000
    535 C         168.2525  183.6585   45.8002 C.3      89        0    0.0000
    536 C         168.0850  182.2867   45.1373 C.3      89        0    0.0000
    537 H         168.2970  183.5464   46.8906 H        89        0    0.0000
    538 H         167.3818  184.2897   45.5836 H        89        0    0.0000
    539 H         168.0491  182.3979   44.0465 H        89        0    0.0000
    540 H         168.9518  181.6525   45.3610 H        89        0    0.0000
    541 C         166.7848  181.5517   45.6134 C.3      90        0    0.0000
    542 C         166.6332  180.1670   44.9739 C.3      90        0    0.0000
    543 H         166.8102  181.4605   46.7063 H        90        0    0.0000
    544 H         165.9163  182.1758   45.3694 H        90        0    0.0000
    545 H         166.5966  180.2593   43.8813 H        90        0    0.0000
    546 H         167.5070  179.5466   45.2086 H        90        0    0.0000
    547 C         165.3411  179.4255   45.4619 C.3      91        0    0.0000
    548 C         165.2381  178.0048   44.8962 C.3      91        0    0.0000
    549 H         165.3441  179.3945   46.5585 H        91        0    0.0000
    550 H         164.4632  180.0129   45.1658 H        91        0    0.0000
    551 H         165.2207  178.0368   43.7998 H        91        0    0.0000
    552 H         166.1228  177.4217   45.1804 H        91        0    0.0000
    553 C         163.9563  177.2562   45.4002 C.3      92        0    0.0000
    554 C         163.6336  176.0212   44.5518 C.3      92        0    0.0000
    555 H         164.1057  176.9647   46.4473 H        92        0    0.0000
    556 H         163.1102  177.9544   45.3853 H        92        0    0.0000
    557 H         163.6388  176.2847   43.4869 H        92        0    0.0000
    558 H         164.4078  175.2565   44.6910 H        92        0    0.0000
    559 C         162.2398  175.4006   44.9121 C.3      93        0    0.0000
    560 C         161.7000  174.4984   43.7968 C.3      93        0    0.0000
    561 H         162.3372  174.8297   45.8438 H        93        0    0.0000
    562 H         161.5320  176.2141   45.1136 H        93        0    0.0000
    563 H         161.7847  175.0063   42.8281 H        93        0    0.0000
    564 H         162.3030  173.5846   43.7272 H        93        0    0.0000
    565 C         160.2020  174.0990   44.0287 C.3      94        0    0.0000
    566 C         159.5897  173.4062   42.8063 C.3      94        0    0.0000
    567 H         160.1431  173.4396   44.9035 H        94        0    0.0000
    568 H         159.6294  175.0016   44.2755 H        94        0    0.0000
    569 H         159.9556  173.8762   41.8850 H        94        0    0.0000
    570 H         159.9059  172.3562   42.7713 H        94        0    0.0000
    571 C         158.0230  173.4621   42.8144 C.3      95        0    0.0000
    572 C         157.4117  172.7971   41.5762 C.3      95        0    0.0000
    573 H         157.6564  172.9715   43.7245 H        95        0    0.0000
    574 H         157.7070  174.5110   42.8727 H        95        0    0.0000
    575 H         157.9242  173.1449   40.6707 H        95        0    0.0000
    576 H         157.5566  171.7106   41.6225 H        95        0    0.0000
    577 C         155.8794  173.0971   41.4362 C.3      96        0    0.0000
    578 C         155.2715  172.4454   40.1893 C.3      96        0    0.0000
    579 H         155.3653  172.7386   42.3366 H        96        0    0.0000
    580 H         155.7336  174.1838   41.4017 H        96        0    0.0000
    581 H         156.0605  172.2140   39.4632 H        96        0    0.0000
    582 H         154.7990  171.4917   40.4557 H        96        0    0.0000
    583 C         154.2037  173.3631   39.5001 C.3      97        0    0.0000
    584 C         153.6391  172.7370   38.2201 C.3      97        0    0.0000
    585 H         153.3927  173.5587   40.2125 H        97        0    0.0000
    586 H         154.6643  174.3326   39.2731 H        97        0    0.0000
    587 H         153.8067  171.6529   38.2260 H        97        0    0.0000
    588 H         152.5534  172.8877   38.1749 H        97        0    0.0000
    589 C         154.2874  173.3415   36.9271 C.3      98        0    0.0000
    590 C         153.4992  172.9861   35.6616 C.3      98        0    0.0000
    591 H         154.3486  174.4312   37.0385 H        98        0    0.0000
    592 H         155.3180  172.9749   36.8438 H        98        0    0.0000
    593 H         153.7636  171.9759   35.3250 H        98        0    0.0000
    594 H         152.4240  172.9743   35.8789 H        98        0    0.0000
    595 C         153.7673  173.9947   34.4918 C.3      99        0    0.0000
    596 C         152.8889  173.7119   33.2682 C.3      99        0    0.0000
    597 H         153.5884  175.0140   34.8559 H        99        0    0.0000
    598 H         154.8274  173.9408   34.2144 H        99        0    0.0000
    599 H         153.1940  172.7700   32.7957 H        99        0    0.0000
    600 H         151.8436  173.5855   33.5766 H        99        0    0.0000
    601 C         152.9662  174.8597   32.2032 C.3     100        0    0.0000
    602 C         151.5991  175.1704   31.5839 C.3     100        0    0.0000
    603 H         153.3758  175.7583   32.6810 H       100        0    0.0000
    604 H         153.6765  174.5678   31.4198 H       100        0    0.0000
    605 H         151.3484  174.4160   30.8279 H       100        0    0.0000
    606 H         150.8176  175.1185   32.3521 H       100        0    0.0000
    607 C         151.5579  176.5881   30.9161 C.3     101        0    0.0000
    608 C         150.2055  177.2826   31.1104 C.3     101        0    0.0000
    609 H         152.3610  177.2028   31.3413 H       101        0    0.0000
    610 H         151.7757  176.4815   29.8462 H       101        0    0.0000
    611 H         149.4525  176.8304   30.4531 H       101        0    0.0000
    612 H         149.8530  177.1385   32.1392 H       101        0    0.0000
    613 C         150.2788  178.8199   30.8121 C.3     102        0    0.0000
    614 C         149.1045  179.5878   31.4290 C.3     102        0    0.0000
    615 H         151.2283  179.2103   31.1988 H       102        0    0.0000
    616 H         150.2962  178.9688   29.7253 H       102        0    0.0000
    617 H         148.1718  179.3256   30.9145 H       102        0    0.0000
    618 H         148.9767  179.2992   32.4796 H       102        0    0.0000
    619 C         149.3045  181.1408   31.3523 C.3     103        0    0.0000
    620 C         148.1730  181.9071   32.0462 C.3     103        0    0.0000
    621 H         150.2680  181.3963   31.8105 H       103        0    0.0000
    622 H         149.3684  181.4375   30.2981 H       103        0    0.0000
    623 H         148.3027  181.8653   33.1347 H       103        0    0.0000
    624 H         148.2088  182.9669   31.7651 H       103        0    0.0000
    625 C         146.7589  181.3356   31.6836 C.3     104        0    0.0000
    626 C         145.6670  181.8421   32.6324 C.3     104        0    0.0000
    627 H         146.5188  181.6153   30.6503 H       104        0    0.0000
    628 H         146.8027  180.2398   31.7113 H       104        0    0.0000
    629 H         146.0100  181.7722   33.6721 H       104        0    0.0000
    630 H         145.4626  182.9025   32.4388 H       104        0    0.0000
    631 C         144.3312  181.0350   32.4857 C.3     105        0    0.0000
    632 C         143.2321  181.5564   33.4180 C.3     105        0    0.0000
    633 H         143.9971  181.0908   31.4422 H       105        0    0.0000
    634 H         144.5323  179.9772   32.6960 H       105        0    0.0000
    635 H         143.5643  181.4961   34.4618 H       105        0    0.0000
    636 H         143.0344  182.6155   33.2110 H       105        0    0.0000
    637 C         141.8942  180.7536   33.2663 C.3     106        0    0.0000
    638 C         140.6786  181.6743   33.1128 C.3     106        0    0.0000
    639 H         141.9763  180.0907   32.3961 H       106        0    0.0000
    640 H         141.7681  180.1074   34.1438 H       106        0    0.0000
    641 H         140.2688  181.9241   34.0993 H       106        0    0.0000
    642 H         140.9801  182.6212   32.6479 H       106        0    0.0000
    643 C         139.5463  181.0237   32.2454 C.3     107        0    0.0000
    644 C         138.5108  180.2858   33.1010 C.3     107        0    0.0000
    645 H         139.0567  181.8092   31.6564 H       107        0    0.0000
    646 H         140.0041  180.3312   31.5282 H       107        0    0.0000
    647 H         138.9362  180.0465   34.0835 H       107        0    0.0000
    648 H         137.6432  180.9322   33.2824 H       107        0    0.0000
    649 C         138.0198  178.9586   32.4263 C.3     108        0    0.0000
    650 C         137.7027  177.8671   33.4544 C.3     108        0    0.0000
    651 H         137.1300  179.1769   31.8228 H       108        0    0.0000
    652 H         138.7932  178.6079   31.7317 H       108        0    0.0000
    653 H         138.5722  177.6952   34.1008 H       108        0    0.0000
    654 H         136.8837  178.1923   34.1079 H       108        0    0.0000
    655 C         137.3008  176.5117   32.7771 C.3     109        0    0.0000
    656 C         135.9883  175.9502   33.3351 C.3     109        0    0.0000
    657 H         137.2125  176.6696   31.6950 H       109        0    0.0000
    658 H         138.1123  175.7883   32.9247 H       109        0    0.0000
    659 H         136.1981  175.2144   34.1212 H       109        0    0.0000
    660 H         135.4044  176.7528   33.8024 H       109        0    0.0000
    661 C         135.1142  175.2695   32.2260 C.3     110        0    0.0000
    662 C         133.8903  174.5543   32.8086 C.3     110        0    0.0000
    663 H         134.7960  176.0348   31.5073 H       110        0    0.0000
    664 H         135.7379  174.5569   31.6720 H       110        0    0.0000
    665 H         134.2042  173.8365   33.5765 H       110        0    0.0000
    666 H         133.2322  175.2785   33.3046 H       110        0    0.0000
    667 C         133.0686  173.7936   31.7115 C.3     111        0    0.0000
    668 C         132.5722  172.4283   32.2001 C.3     111        0    0.0000
    669 H         132.2178  174.4176   31.4108 H       111        0    0.0000
    670 H         133.6978  173.6687   30.8216 H       111        0    0.0000
    671 H         133.3505  171.9365   32.7965 H       111        0    0.0000
    672 H         131.7046  172.5573   32.8590 H       111        0    0.0000
    673 C         132.1708  171.4834   31.0153 C.3     112        0    0.0000
    674 C         132.2762  170.0017   31.3927 C.3     112        0    0.0000
    675 H         131.1454  171.7207   30.7056 H       112        0    0.0000
    676 H         132.8174  171.6997   30.1559 H       112        0    0.0000
    677 H         133.2892  169.7752   31.7480 H       112        0    0.0000
    678 H         131.5938  169.7750   32.2212 H       112        0    0.0000
    679 C         131.9402  169.0565   30.1882 C.3     113        0    0.0000
    680 C         131.7371  167.6028   30.6296 C.3     113        0    0.0000
    681 H         131.0366  169.4277   29.6888 H       113        0    0.0000
    682 H         132.7531  169.1166   29.4540 H       113        0    0.0000
    683 H         132.6628  167.0325   30.4831 H       113        0    0.0000
    684 H         131.5093  167.5637   31.7020 H       113        0    0.0000
    685 C         130.5796  166.8987   29.8410 C.3     114        0    0.0000
    686 C         129.6951  166.0398   30.7516 C.3     114        0    0.0000
    687 H         129.9737  167.6655   29.3427 H       114        0    0.0000
    688 H         131.0175  166.2790   29.0487 H       114        0    0.0000
    689 H         130.0147  164.9913   30.7061 H       114        0    0.0000
    690 H         129.8082  166.3586   31.7952 H       114        0    0.0000
    691 C         128.1798  166.1238   30.3589 C.3     115        0    0.0000
    692 C         127.2676  165.5157   31.4300 C.3     115        0    0.0000
    693 H         127.9154  167.1754   30.1925 H       115        0    0.0000
    694 H         128.0332  165.6069   29.4024 H       115        0    0.0000
    695 H         127.5605  164.4772   31.6281 H       115        0    0.0000
    696 H         127.3818  166.0610   32.3751 H       115        0    0.0000
    697 C         125.7576  165.5435   31.0099 C.3     116        0    0.0000
    698 C         125.0247  164.2526   31.3915 C.3     116        0    0.0000
    699 H         125.2739  166.4054   31.4859 H       116        0    0.0000
    700 H         125.6949  165.7055   29.9266 H       116        0    0.0000
    701 H         125.6614  163.3834   31.1848 H       116        0    0.0000
    702 H         124.8173  164.2422   32.4687 H       116        0    0.0000
    703 C         123.6732  164.0850   30.6150 C.3     117        0    0.0000
    704 C         122.9835  162.7531   30.9303 C.3     117        0    0.0000
    705 H         123.0116  164.9214   30.8722 H       117        0    0.0000
    706 H         123.8721  164.1601   29.5387 H       117        0    0.0000
    707 H         123.6486  161.9169   30.6815 H       117        0    0.0000
    708 H         122.7765  162.6819   32.0053 H       117        0    0.0000
    709 C         121.6383  162.5800   30.1441 C.3     118        0    0.0000
    710 C         120.8660  161.3309   30.5825 C.3     118        0    0.0000
    711 H         121.0227  163.4753   30.2954 H       118        0    0.0000
    712 H         121.8601  162.5278   29.0710 H       118        0    0.0000
    713 H         121.4635  160.4316   30.3882 H       118        0    0.0000
    714 H         120.6847  161.3610   31.6641 H       118        0    0.0000
    715 C         119.4904  161.1930   29.8433 C.3     119        0    0.0000
    716 C         118.8155  159.8449   30.1190 C.3     119        0    0.0000
    717 H         118.8349  162.0136   30.1602 H       119        0    0.0000
    718 H         119.6539  161.3185   28.7658 H       119        0    0.0000
    719 H         119.5258  159.0266   29.9475 H       119        0    0.0000
    720 H         118.5129  159.7840   31.1717 H       119        0    0.0000
    721 C         117.5541  159.6165   29.2166 C.3     120        0    0.0000
    722 C         117.2311  158.1292   29.0354 C.3     120        0    0.0000
    723 H         116.6986  160.1351   29.6669 H       120        0    0.0000
    724 H         117.7283  160.0853   28.2402 H       120        0    0.0000
    725 H         118.1184  157.5223   29.2543 H       120        0    0.0000
    726 H         116.4561  157.8230   29.7489 H       120        0    0.0000
    727 C         116.7397  157.8006   27.5835 C.3     121        0    0.0000
    728 C         116.7379  156.2948   27.2978 C.3     121        0    0.0000
    729 H         115.7305  158.2099   27.4507 H       121        0    0.0000
    730 H         117.3869  158.3190   26.8653 H       121        0    0.0000
    731 H         117.6881  155.8500   27.6184 H       121        0    0.0000
    732 H         115.9479  155.8027   27.8784 H       121        0    0.0000
    733 C         116.5195  155.9788   25.7780 C.3     122        0    0.0000
    734 C         116.4177  154.4738   25.5064 C.3     122        0    0.0000
    735 H         115.6069  156.4847   25.4392 H       122        0    0.0000
    736 H         117.3497  156.4092   25.2044 H       122        0    0.0000
    737 H         116.1649  154.2978   24.4535 H       122        0    0.0000
    738 H         117.3882  153.9934   25.6819 H       122        0    0.0000
    739 C         115.3396  153.7791   26.4078 C.3     123        0    0.0000
    740 C         115.0245  152.3532   25.9422 C.3     123        0    0.0000
    741 H         115.7005  153.7653   27.4437 H       123        0    0.0000
    742 H         114.4269  154.3876   26.4002 H       123        0    0.0000
    743 H         115.3239  152.2249   24.8946 H       123        0    0.0000
    744 H         115.6058  151.6295   26.5268 H       123        0    0.0000
    745 C         113.5018  152.0066   26.0787 C.3     124        0    0.0000
    746 C         113.1716  150.6141   25.5298 C.3     124        0    0.0000
    747 H         113.2179  152.0710   27.1364 H       124        0    0.0000
    748 H         112.9168  152.7683   25.5485 H       124        0    0.0000
    749 H         113.6778  150.4588   24.5690 H       124        0    0.0000
    750 H         113.5476  149.8419   26.2124 H       124        0    0.0000
    751 C         111.6311  150.4046   25.3291 C.3     125        0    0.0000
    752 C         111.3064  149.0420   24.7071 C.3     125        0    0.0000
    753 H         111.1313  150.5033   26.3007 H       125        0    0.0000
    754 H         111.2446  151.2103   24.6927 H       125        0    0.0000
    755 H         110.5701  148.5126   25.3244 H       125        0    0.0000
    756 H         110.8493  149.1787   23.7192 H       125        0    0.0000
    757 C         112.5796  148.1402   24.5543 C.3     126        0    0.0000
    758 C         112.2993  146.8729   23.7391 C.3     126        0    0.0000
    759 H         113.3734  148.7272   24.0759 H       126        0    0.0000
    760 H         112.9447  147.8717   25.5533 H       126        0    0.0000
    761 H         111.4011  147.0119   23.1247 H       126        0    0.0000
    762 H         113.1280  146.6801   23.0466 H       126        0    0.0000
    763 C         112.0984  145.6129   24.6499 C.3     127        0    0.0000
    764 C         111.7684  144.3557   23.8377 C.3     127        0    0.0000
    765 H         113.0107  145.4524   25.2376 H       127        0    0.0000
    766 H         111.2941  145.8195   25.3669 H       127        0    0.0000
    767 H         111.3864  144.6366   22.8484 H       127        0    0.0000
    768 H         112.6789  143.7675   23.6686 H       127        0    0.0000
    769 C         110.7065  143.4495   24.5509 C.3     128        0    0.0000
    770 C         110.2142  142.3121   23.6492 C.3     128        0    0.0000
    771 H         111.1500  143.0386   25.4664 H       128        0    0.0000
    772 H         109.8610  144.0746   24.8635 H       128        0    0.0000
    773 H         109.8431  142.7183   22.7000 H       128        0    0.0000
    774 H         111.0463  141.6416   23.4011 H       128        0    0.0000
    775 C         109.0725  141.4735   24.3206 C.3     129        0    0.0000
    776 C         108.4327  140.4785   23.3460 C.3     129        0    0.0000
    777 H         109.4871  140.9399   25.1848 H       129        0    0.0000
    778 H         108.3113  142.1608   24.7102 H       129        0    0.0000
    779 H         108.0815  141.0035   22.4491 H       129        0    0.0000
    780 H         109.1788  139.7473   23.0112 H       129        0    0.0000
    781 C         107.2256  139.7112   23.9876 C.3     130        0    0.0000
    782 C         106.4926  138.8281   22.9717 C.3     130        0    0.0000
    783 H         107.5972  139.0993   24.8189 H       130        0    0.0000
    784 H         106.5315  140.4424   24.4203 H       130        0    0.0000
    785 H         106.1536  139.4340   22.1222 H       130        0    0.0000
    786 H         107.1775  138.0729   22.5666 H       130        0    0.0000
    787 C         105.2540  138.1017   23.6005 C.3     131        0    0.0000
    788 C         104.5517  137.1785   22.5987 C.3     131        0    0.0000
    789 H         105.5870  137.5260   24.4730 H       131        0    0.0000
    790 H         104.5513  138.8580   23.9716 H       131        0    0.0000
    791 H         104.2006  137.7577   21.7356 H       131        0    0.0000
    792 H         105.2596  136.4350   22.2121 H       131        0    0.0000
    793 C         103.3304  136.4301   23.2356 C.3     132        0    0.0000
    794 C         102.6765  135.4479   22.2573 C.3     132        0    0.0000
    795 H         103.6705  135.8975   24.1323 H       132        0    0.0000
    796 H         102.5957  137.1730   23.5701 H       132        0    0.0000
    797 H         102.3259  135.9824   21.3658 H       132        0    0.0000
    798 H         103.4141  134.7121   21.9138 H       132        0    0.0000
    799 C         101.4655  134.6874   22.8995 C.3     133        0    0.0000
    800 C         100.5657  134.0329   21.8454 C.3     133        0    0.0000
    801 H         101.8513  133.9268   23.5895 H       133        0    0.0000
    802 H         100.8839  135.3948   23.5037 H       133        0    0.0000
    803 H         100.3216  134.7563   21.0577 H       133        0    0.0000
    804 H         101.0966  133.2050   21.3594 H       133        0    0.0000
    805 C          99.2315  133.4858   22.4602 C.3     134        0    0.0000
    806 C          98.0130  133.8168   21.5915 C.3     134        0    0.0000
    807 H          99.3195  132.3996   22.5865 H       134        0    0.0000
    808 H          99.1044  133.9103   23.4638 H       134        0    0.0000
    809 H          98.2028  134.7264   21.0082 H       134        0    0.0000
    810 H          97.8359  133.0105   20.8690 H       134        0    0.0000
    811 C          96.7143  134.0253   22.4443 C.3     135        0    0.0000
    812 C          95.5202  134.4601   21.5874 C.3     135        0    0.0000
    813 H          96.4809  133.0898   22.9676 H       135        0    0.0000
    814 H          96.9159  134.7770   23.2176 H       135        0    0.0000
    815 H          95.7366  135.4185   21.0993 H       135        0    0.0000
    816 H          95.3467  133.7307   20.7864 H       135        0    0.0000
    817 C          94.2065  134.6074   22.4300 C.3     136        0    0.0000
    818 C          93.0081  133.9247   21.7616 C.3     136        0    0.0000
    819 H          94.3756  134.1798   23.4261 H       136        0    0.0000
    820 H          93.9981  135.6744   22.5764 H       136        0    0.0000
    821 H          92.5215  134.6175   21.0639 H       136        0    0.0000
    822 H          93.3469  133.0663   21.1683 H       136        0    0.0000
    823 C          91.9477  133.4307   22.8052 C.3     137        0    0.0000
    824 C          90.9121  132.4896   22.1799 C.3     137        0    0.0000
    825 H          92.4693  132.9237   23.6264 H       137        0    0.0000
    826 H          91.4473  134.3041   23.2414 H       137        0    0.0000
    827 H          90.3107  133.0309   21.4391 H       137        0    0.0000
    828 H          91.4177  131.6776   21.6426 H       137        0    0.0000
    829 C          89.9527  131.8659   23.2514 C.3     138        0    0.0000
    830 C          88.9811  130.8504   22.6401 C.3     138        0    0.0000
    831 H          90.5574  131.3859   24.0308 H       138        0    0.0000
    832 H          89.3941  132.6744   23.7392 H       138        0    0.0000
    833 H          88.3063  131.3523   21.9357 H       138        0    0.0000
    834 H          89.5354  130.0990   22.0642 H       138        0    0.0000
    835 C          88.1222  130.1198   23.7292 C.3     139        0    0.0000
    836 C          87.1803  129.0747   23.1214 C.3     139        0    0.0000
    837 H          88.7973  129.6434   24.4509 H       139        0    0.0000
    838 H          87.5446  130.8688   24.2850 H       139        0    0.0000
    839 H          86.3861  129.5710   22.5501 H       139        0    0.0000
    840 H          87.7285  128.4407   22.4135 H       139        0    0.0000
    841 C          86.5225  128.1617   24.2128 C.3     140        0    0.0000
    842 C          85.5549  127.1385   23.6079 C.3     140        0    0.0000
    843 H          87.3161  127.6464   24.7680 H       140        0    0.0000
    844 H          85.9948  128.7974   24.9345 H       140        0    0.0000
    845 H          86.1139  126.3725   23.0562 H       140        0    0.0000
    846 H          85.0108  126.6179   24.4057 H       140        0    0.0000
    847 C          84.5171  127.8028   22.6389 C.3     141        0    0.0000
    848 C          83.5985  126.7708   21.9754 C.3     141        0    0.0000
    849 H          83.9202  128.5293   23.2041 H       141        0    0.0000
    850 H          85.0609  128.3697   21.8731 H       141        0    0.0000
    851 H          82.7486  127.2749   21.4990 H       141        0    0.0000
    852 H          84.1385  126.2433   21.1794 H       141        0    0.0000
    853 C          83.0517  125.7170   22.9992 C.3     142        0    0.0000
    854 C          82.1414  124.6789   22.3339 C.3     142        0    0.0000
    855 H          83.9017  125.2182   23.4811 H       142        0    0.0000
    856 H          82.5053  126.2440   23.7912 H       142        0    0.0000
    857 H          81.0897  124.9645   22.4608 H       142        0    0.0000
    858 H          82.3316  124.6489   21.2539 H       142        0    0.0000
    859 C          82.3493  123.2414   22.9237 C.3     143        0    0.0000
    860 C          81.5132  122.1864   22.1910 C.3     143        0    0.0000
    861 H          83.4144  122.9853   22.8638 H       143        0    0.0000
    862 H          82.0880  123.2551   23.9891 H       143        0    0.0000
    863 H          81.1200  121.4542   22.9072 H       143        0    0.0000
    864 H          80.6450  122.6587   21.7148 H       143        0    0.0000
    865 C          82.3401  121.4285   21.0960 C.3     144        0    0.0000
    866 C          81.6209  120.1730   20.5904 C.3     144        0    0.0000
    867 H          82.5327  122.1136   20.2610 H       144        0    0.0000
    868 H          83.3177  121.1591   21.5145 H       144        0    0.0000
    869 H          80.9947  119.7518   21.3866 H       144        0    0.0000
    870 H          80.9475  120.4323   19.7640 H       144        0    0.0000
    871 C          82.6226  119.0716   20.0994 C.3     145        0    0.0000
    872 C          81.9040  117.8090   19.6111 C.3     145        0    0.0000
    873 H          83.2396  119.4886   19.2938 H       145        0    0.0000
    874 H          83.3046  118.8221   20.9216 H       145        0    0.0000
    875 H          82.6161  117.1402   19.1119 H       145        0    0.0000
    876 H          81.4962  117.2542   20.4651 H       145        0    0.0000
    877 C          80.7366  118.1366   18.6174 C.3     146        0    0.0000
    878 C          79.8298  116.9265   18.3675 C.3     146        0    0.0000
    879 H          80.1492  118.9692   19.0240 H       146        0    0.0000
    880 H          81.1659  118.4868   17.6706 H       146        0    0.0000
    881 H          79.5799  116.8574   17.3015 H       146        0    0.0000
    882 H          80.3577  116.0007   18.6279 H       146        0    0.0000
    883 C          78.5001  116.9996   19.1946 C.3     147        0    0.0000
    884 C          77.5204  115.8822   18.8193 C.3     147        0    0.0000
    885 H          78.7443  116.9428   20.2626 H       147        0    0.0000
    886 H          78.0345  117.9792   19.0295 H       147        0    0.0000
    887 H          77.1254  115.4081   19.7263 H       147        0    0.0000
    888 H          76.6601  116.3008   18.2824 H       147        0    0.0000
    889 C          78.1884  114.7824   17.9241 C.3     148        0    0.0000
    890 C          77.1754  113.7468   17.4235 C.3     148        0    0.0000
    891 H          78.6799  115.2697   17.0730 H       148        0    0.0000
    892 H          78.9780  114.2870   18.5026 H       148        0    0.0000
    893 H          76.5980  113.3474   18.2665 H       148        0    0.0000
    894 H          76.4556  114.2219   16.7455 H       148        0    0.0000
    895 C          77.8651  112.5553   16.6738 C.3     149        0    0.0000
    896 C          76.8622  111.4755   16.2526 C.3     149        0    0.0000
    897 H          78.3880  112.9472   15.7926 H       149        0    0.0000
    898 H          78.6316  112.1220   17.3282 H       149        0    0.0000
    899 H          76.1034  111.3418   17.0336 H       149        0    0.0000
    900 H          76.3296  111.7898   15.3464 H       149        0    0.0000
    901 C          77.5544  110.0959   15.9791 C.3     150        0    0.0000
    902 C          76.5481  109.0091   15.5852 C.3     150        0    0.0000
    903 H          78.2988  110.2253   15.1837 H       150        0    0.0000
    904 H          78.1040  109.7916   16.8785 H       150        0    0.0000
    905 H          75.6700  109.0539   16.2413 H       150        0    0.0000
    906 H          76.1874  109.1827   14.5638 H       150        0    0.0000
    907 C          77.1657  107.5704   15.6653 C.3     151        0    0.0000
    908 C          76.1165  106.4749   15.4459 C.3     151        0    0.0000
    909 H          77.9614  107.4849   14.9149 H       151        0    0.0000
    910 H          77.6421  107.4441   16.6454 H       151        0    0.0000
    911 H          75.2702  106.6225   16.1281 H       151        0    0.0000
    912 H          75.7145  106.5377   14.4271 H       151        0    0.0000
    913 C          76.7020  105.0381   15.6703 C.3     152        0    0.0000
    914 C          75.6088  103.9643   15.7045 C.3     152        0    0.0000
    915 H          77.4191  104.8194   14.8695 H       152        0    0.0000
    916 H          77.2672  105.0295   16.6105 H       152        0    0.0000
    917 H          74.8573  104.2166   16.4629 H       152        0    0.0000
    918 H          75.0851  103.9299   14.7412 H       152        0    0.0000
    919 C          76.1845  102.5403   16.0178 C.3     153        0    0.0000
    920 C          75.0865  101.4737   16.0941 C.3     153        0    0.0000
    921 H          76.9134  102.2750   15.2420 H       153        0    0.0000
    922 H          76.7348  102.5821   16.9660 H       153        0    0.0000
    923 H          74.3594  101.7373   16.8722 H       153        0    0.0000
    924 H          74.5340  101.4343   15.1471 H       153        0    0.0000
    925 C          75.6626  100.0489   16.4026 C.3     154        0    0.0000
    926 C          74.6465   98.9373   16.1179 C.3     154        0    0.0000
    927 H          76.5668   99.8951   15.8008 H       154        0    0.0000
    928 H          75.9741  100.0135   17.4539 H       154        0    0.0000
    929 H          73.7958   99.0201   16.8057 H       154        0    0.0000
    930 H          74.2433   99.0470   15.1035 H       154        0    0.0000
    931 C          75.2742   97.5079   16.2603 C.3     155        0    0.0000
    932 C          74.7982   96.5523   15.1605 C.3     155        0    0.0000
    933 H          76.3672   97.5974   16.2337 H       155        0    0.0000
    934 H          75.0150   97.1046   17.2471 H       155        0    0.0000
    935 H          73.7672   96.2342   15.3589 H       155        0    0.0000
    936 H          74.7879   97.0683   14.1924 H       155        0    0.0000
    937 C          75.7064   95.2798   15.0451 C.3     156        0    0.0000
    938 C          75.0494   94.1705   14.2164 C.3     156        0    0.0000
    939 H          76.6642   95.5686   14.5949 H       156        0    0.0000
    940 H          75.9307   94.9128   16.0544 H       156        0    0.0000
    941 H          74.0138   94.0186   14.5451 H       156        0    0.0000
    942 H          75.0048   94.4658   13.1608 H       156        0    0.0000
    943 C          75.8198   92.8098   14.3283 C.3     157        0    0.0000
    944 C          74.9544   91.6162   13.9097 C.3     157        0    0.0000
    945 H          76.7193   92.8602   13.7022 H       157        0    0.0000
    946 H          76.1627   92.6816   15.3625 H       157        0    0.0000
    947 H          74.5699   91.7683   12.8936 H       157        0    0.0000
    948 H          75.5610   90.7025   13.8835 H       157        0    0.0000
    949 C          73.7436   91.3911   14.8797 C.3     158        0    0.0000
    950 C          72.8111   90.2753   14.3955 C.3     158        0    0.0000
    951 H          74.1301   91.1515   15.8780 H       158        0    0.0000
    952 H          73.1870   92.3317   14.9747 H       158        0    0.0000
    953 H          72.9555   90.1039   13.3215 H       158        0    0.0000
    954 H          73.0576   89.3333   14.9008 H       158        0    0.0000
    955 C          71.3014   90.6081   14.6554 C.3     159        0    0.0000
    956 C          70.3603   89.6941   13.8630 C.3     159        0    0.0000
    957 H          71.0989   90.5160   15.7297 H       159        0    0.0000
    958 H          71.1196   91.6568   14.3894 H       159        0    0.0000
    959 H          70.8282   89.4043   12.9140 H       159        0    0.0000
    960 H          70.1784   88.7671   14.4207 H       159        0    0.0000
    961 C          68.9834   90.3792   13.5590 C.3     160        0    0.0000
    962 C          68.0590   89.4819   12.7287 C.3     160        0    0.0000
    963 H          68.5007   90.6399   14.5090 H       160        0    0.0000
    964 H          69.1670   91.3224   13.0296 H       160        0    0.0000
    965 H          68.4485   89.3827   11.7079 H       160        0    0.0000
    966 H          68.0327   88.4716   13.1554 H       160        0    0.0000
    967 C          66.5955   90.0393   12.6591 C.3     161        0    0.0000
    968 C          65.6559   89.1091   11.8838 C.3     161        0    0.0000
    969 H          66.2231   90.1837   13.6809 H       161        0    0.0000
    970 H          66.6165   91.0301   12.1885 H       161        0    0.0000
    971 H          64.6572   89.5575   11.8125 H       161        0    0.0000
    972 H          66.0176   88.9805   10.8561 H       161        0    0.0000
    973 C          65.5296   87.6982   12.5553 C.3     162        0    0.0000
    974 C          64.5170   86.8008   11.8352 C.3     162        0    0.0000
    975 H          66.5171   87.2205   12.5628 H       162        0    0.0000
    976 H          65.2357   87.8308   13.6039 H       162        0    0.0000
    977 H          64.8968   86.5257   10.8434 H       162        0    0.0000
    978 H          64.3815   85.8650   12.3914 H       162        0    0.0000
    979 C          63.1217   87.4953   11.6672 C.3     163        0    0.0000
    980 C          62.0782   86.5598   11.0467 C.3     163        0    0.0000
    981 H          62.7788   87.8423   12.6498 H       163        0    0.0000
    982 H          63.2444   88.3889   11.0427 H       163        0    0.0000
    983 H          61.0958   87.0478   11.0339 H       163        0    0.0000
    984 H          62.3378   86.3468   10.0023 H       163        0    0.0000
    985 C          61.9588   85.2039   11.8243 C.3     164        0    0.0000
    986 C          60.9906   84.2285   11.1459 C.3     164        0    0.0000
    987 H          62.9554   84.7518   11.9019 H       164        0    0.0000
    988 H          61.6267   85.4120   12.8490 H       164        0    0.0000
    989 H          61.4168   83.8725   10.1998 H       164        0    0.0000
    990 H          60.8436   83.3439   11.7778 H       164        0    0.0000
    991 C          59.5948   84.8811   10.8576 C.3     165        0    0.0000
    992 C          58.5703   83.8607   10.3496 C.3     165        0    0.0000
    993 H          59.2294   85.3552   11.7770 H       165        0    0.0000
    994 H          59.7248   85.6827   10.1200 H       165        0    0.0000
    995 H          58.5210   83.8905    9.2541 H       165        0    0.0000
    996 H          58.8831   82.8454   10.6233 H       165        0    0.0000
    997 C          57.1363   84.1205   10.9272 C.3     166        0    0.0000
    998 C          56.1272   83.0586   10.4762 C.3     166        0    0.0000
    999 H          57.1949   84.1427   12.0224 H       166        0    0.0000
   1000 H          56.8021   85.1160   10.6094 H       166        0    0.0000
   1001 H          55.1702   83.2062   10.9919 H       166        0    0.0000
   1002 H          55.9261   83.1627    9.4028 H       166        0    0.0000
   1003 C          56.6329   81.6015   10.7566 C.3     167        0    0.0000
   1004 C          55.6990   80.5390   10.1669 C.3     167        0    0.0000
   1005 H          57.6409   81.4904   10.3381 H       167        0    0.0000
   1006 H          56.7248   81.4616   11.8408 H       167        0    0.0000
   1007 H          56.1803   80.0477    9.3122 H       167        0    0.0000
   1008 H          55.5024   79.7566   10.9103 H       167        0    0.0000
   1009 C          54.3315   81.1448    9.6972 C.3     168        0    0.0000
   1010 C          53.3396   80.0642    9.2530 C.3     168        0    0.0000
   1011 H          53.9043   81.7326   10.5190 H       168        0    0.0000
   1012 H          54.5191   81.8447    8.8735 H       168        0    0.0000
   1013 H          53.4372   79.8841    8.1752 H       168        0    0.0000
   1014 H          53.5686   79.1149    9.7529 H       168        0    0.0000
   1015 C          51.8545   80.4555    9.5674 C.3     169        0    0.0000
   1016 C          50.8539   79.4461    8.9938 C.3     169        0    0.0000
   1017 H          51.7313   80.5307   10.6550 H       169        0    0.0000
   1018 H          51.6578   81.4542    9.1583 H       169        0    0.0000
   1019 H          51.2201   79.0562    8.0360 H       169        0    0.0000
   1020 H          50.7585   78.5862    9.6683 H       169        0    0.0000
   1021 C          49.4351   80.0755    8.7738 C.3     170        0    0.0000
   1022 C          48.4406   79.0725    8.1788 C.3     170        0    0.0000
   1023 H          49.0617   80.4505    9.7348 H       170        0    0.0000
   1024 H          49.5329   80.9455    8.1126 H       170        0    0.0000
   1025 H          48.8182   78.6908    7.2221 H       170        0    0.0000
   1026 H          48.3362   78.2066    8.8443 H       170        0    0.0000
   1027 C          47.0253   79.7054    7.9472 C.3     171        0    0.0000
   1028 C          46.0370   78.7087    7.3316 C.3     171        0    0.0000
   1029 H          46.6407   80.0724    8.9069 H       171        0    0.0000
   1030 H          47.1319   80.5810    7.2949 H       171        0    0.0000
   1031 H          46.4245   78.3369    6.3750 H       171        0    0.0000
   1032 H          45.9255   77.8360    7.9869 H       171        0    0.0000
   1033 C          44.6242   79.3441    7.0917 C.3     172        0    0.0000
   1034 C          43.6361   78.3477    6.4754 C.3     172        0    0.0000
   1035 H          44.2364   79.7155    8.0484 H       172        0    0.0000
   1036 H          44.7357   80.2172    6.4368 H       172        0    0.0000
   1037 H          44.0219   77.9796    5.5166 H       172        0    0.0000
   1038 H          43.5279   77.4726    7.1282 H       172        0    0.0000
   1039 C          42.2215   78.9814    6.2412 C.3     173        0    0.0000
   1040 C          41.2326   77.9840    5.6276 C.3     173        0    0.0000
   1041 H          41.8367   79.3514    7.1996 H       173        0    0.0000
   1042 H          42.3295   79.8551    5.5866 H       173        0    0.0000
   1043 H          40.3660   77.8587    6.2885 H       173        0    0.0000
   1044 H          40.8494   78.3716    4.6756 H       173        0    0.0000
   1045 C          41.8836   76.5802    5.3763 C.3     174        0    0.0000
   1046 C          40.8718   75.5568    4.8491 C.3     174        0    0.0000
   1047 H          42.7085   76.6957    4.6624 H       174        0    0.0000
   1048 H          42.3263   76.2227    6.3142 H       174        0    0.0000
   1049 H          40.0506   75.4359    5.5664 H       174        0    0.0000
   1050 H          40.4236   75.9177    3.9151 H       174        0    0.0000
   1051 C          41.5250   74.1559    4.5879 C.3     175        0    0.0000
   1052 C          40.7324   73.3258    3.5722 C.3     175        0    0.0000
   1053 H          42.5519   74.3054    4.2320 H       175        0    0.0000
   1054 H          41.5971   73.6162    5.5403 H       175        0    0.0000
   1055 H          39.7486   73.0676    3.9833 H       175        0    0.0000
   1056 H          40.5499   73.9153    2.6651 H       175        0    0.0000
   1057 C          41.4766   72.0045    3.1749 C.3     176        0    0.0000
   1058 C          40.7016   71.1928    2.1310 C.3     176        0    0.0000
   1059 H          42.4711   72.2610    2.7894 H       176        0    0.0000
   1060 H          41.6345   71.4023    4.0782 H       176        0    0.0000
   1061 H          39.8047   70.7541    2.5856 H       176        0    0.0000
   1062 H          40.3561   71.8505    1.3238 H       176        0    0.0000
   1063 C          41.5675   70.0428    1.5102 C.3     177        0    0.0000
   1064 C          40.8533   69.3392    0.3509 C.3     177        0    0.0000
   1065 H          42.5198   70.4641    1.1651 H       177        0    0.0000
   1066 H          41.8103   69.3185    2.2975 H       177        0    0.0000
   1067 H          41.4931   68.5488   -0.0608 H       177        0    0.0000
   1068 H          39.9409   68.8493    0.7130 H       177        0    0.0000
   1069 C          40.4711   70.3312   -0.8012 C.3     178        0    0.0000
   1070 C          39.9747   69.6021   -2.0546 C.3     178        0    0.0000
   1071 H          39.6980   71.0179   -0.4346 H       178        0    0.0000
   1072 H          41.3474   70.9445   -1.0449 H       178        0    0.0000
   1073 H          40.3150   68.5592   -2.0428 H       178        0    0.0000
   1074 H          38.8781   69.5756   -2.0649 H       178        0    0.0000
   1075 C          40.4761   70.2822   -3.3751 C.3     179        0    0.0000
   1076 C          40.0763   69.4897   -4.6246 C.3     179        0    0.0000
   1077 H          40.0662   71.2985   -3.4271 H       179        0    0.0000
   1078 H          41.5673   70.3846   -3.3278 H       179        0    0.0000
   1079 H          40.5453   68.4981   -4.6072 H       179        0    0.0000
   1080 H          38.9917   69.3250   -4.6345 H       179        0    0.0000
   1081 C          40.4885   70.2205   -5.9488 C.3     180        0    0.0000
   1082 C          40.0797   69.4329   -7.1984 C.3     180        0    0.0000
   1083 H          40.0254   71.2150   -5.9627 H       180        0    0.0000
   1084 H          41.5741   70.3786   -5.9422 H       180        0    0.0000
   1085 H          40.5577   68.4454   -7.1937 H       180        0    0.0000
   1086 H          38.9966   69.2586   -7.1956 H       180        0    0.0000
   1087 C          40.4685   70.1762   -8.5227 C.3     181        0    0.0000
   1088 C          40.0574   69.3897   -9.7724 C.3     181        0    0.0000
   1089 H          39.9921   71.1644   -8.5265 H       181        0    0.0000
   1090 H          41.5519   70.3487   -8.5264 H       181        0    0.0000
   1091 H          40.5349   68.4020   -9.7692 H       181        0    0.0000
   1092 H          38.9742   69.2160   -9.7680 H       181        0    0.0000
   1093 C          40.4446   70.1339  -11.0967 C.3     182        0    0.0000
   1094 C          40.0352   69.3465  -12.3463 C.3     182        0    0.0000
   1095 H          39.9660   71.1210  -11.1005 H       182        0    0.0000
   1096 H          41.5276   70.3088  -11.1004 H       182        0    0.0000
   1097 H          40.5130   68.3590  -12.3420 H       182        0    0.0000
   1098 H          38.9520   69.1724  -12.3431 H       182        0    0.0000
   1099 C          40.4235   70.0901  -13.6706 C.3     183        0    0.0000
   1100 C          40.0127   69.3035  -14.9203 C.3     183        0    0.0000
   1101 H          39.9466   71.0780  -13.6744 H       183        0    0.0000
   1102 H          41.5068   70.2632  -13.6744 H       183        0    0.0000
   1103 H          40.4885   68.3150  -14.9158 H       183        0    0.0000
   1104 H          38.9292   69.1317  -14.9173 H       183        0    0.0000
   1105 C          40.4029   70.0460  -16.2446 C.3     184        0    0.0000
   1106 C          39.9899   69.2606  -17.4942 C.3     184        0    0.0000
   1107 H          39.9287   71.0353  -16.2482 H       184        0    0.0000
   1108 H          41.4867   70.2162  -16.2484 H       184        0    0.0000
   1109 H          40.4630   68.2708  -17.4898 H       184        0    0.0000
   1110 H          38.9060   69.0917  -17.4912 H       184        0    0.0000
   1111 C          40.3821   70.0022  -18.8186 C.3     185        0    0.0000
   1112 C          39.9672   69.2178  -20.0682 C.3     185        0    0.0000
   1113 H          39.9103   70.9926  -18.8222 H       185        0    0.0000
   1114 H          41.4662   70.1697  -18.8223 H       185        0    0.0000
   1115 H          40.4411   68.2283  -20.0658 H       185        0    0.0000
   1116 H          38.8833   69.0479  -20.0631 H       185        0    0.0000
   1117 C          40.3559   69.9611  -21.3925 C.3     186        0    0.0000
   1118 C          39.9446   69.1748  -22.6421 C.3     186        0    0.0000
   1119 H          39.8796   70.9493  -21.3962 H       186        0    0.0000
   1120 H          41.4393   70.1335  -21.3962 H       186        0    0.0000
   1121 H          40.4188   68.1855  -22.6371 H       186        0    0.0000
   1122 H          38.8609   69.0046  -22.6397 H       186        0    0.0000
   1123 C          40.3368   69.9163  -23.9665 C.3     187        0    0.0000
   1124 C          39.9220   69.1318  -25.2161 C.3     187        0    0.0000
   1125 H          39.8649   70.9067  -23.9702 H       187        0    0.0000
   1126 H          41.4209   70.0839  -23.9702 H       187        0    0.0000
   1127 H          40.3950   68.1420  -25.2131 H       187        0    0.0000
   1128 H          38.8380   68.9630  -25.2117 H       187        0    0.0000
   1129 C          40.3123   69.8744  -26.5404 C.3     188        0    0.0000
   1130 C          39.8989   69.0891  -27.7901 C.3     188        0    0.0000
   1131 H          39.8383   70.8637  -26.5439 H       188        0    0.0000
   1132 H          41.3961   70.0443  -26.5443 H       188        0    0.0000
   1133 H          40.3704   68.0986  -27.7850 H       188        0    0.0000
   1134 H          38.8146   68.9219  -27.7877 H       188        0    0.0000
   1135 C          40.2930   69.8296  -29.1144 C.3     189        0    0.0000
   1136 C          39.8766   69.0461  -30.3640 C.3     189        0    0.0000
   1137 H          39.8236   70.8212  -29.1183 H       189        0    0.0000
   1138 H          41.3776   69.9946  -29.1179 H       189        0    0.0000
   1139 H          40.3475   68.0552  -30.3611 H       189        0    0.0000
   1140 H          38.7922   68.8795  -30.3595 H       189        0    0.0000
   1141 C          40.2683   69.7878  -31.6883 C.3     190        0    0.0000
   1142 C          39.8534   69.0034  -32.9380 C.3     190        0    0.0000
   1143 H          39.7963   70.7781  -31.6919 H       190        0    0.0000
   1144 H          41.3525   69.9555  -31.6922 H       190        0    0.0000
   1145 H          40.3233   68.0121  -32.9331 H       190        0    0.0000
   1146 H          38.7689   68.8380  -32.9354 H       190        0    0.0000
   1147 C          40.2485   69.7434  -34.2623 C.3     191        0    0.0000
   1148 C          39.8302   68.9607  -35.5119 C.3     191        0    0.0000
   1149 H          39.7808   70.7357  -34.2659 H       191        0    0.0000
   1150 H          41.3333   69.9064  -34.2661 H       191        0    0.0000
   1151 H          40.2994   67.9690  -35.5092 H       191        0    0.0000
   1152 H          38.7456   68.7962  -35.5072 H       191        0    0.0000
   1153 C          40.2231   69.7019  -36.8362 C.3     192        0    0.0000
   1154 C          39.8085   68.9174  -38.0859 C.3     192        0    0.0000
   1155 H          39.7516   70.6925  -36.8403 H       192        0    0.0000
   1156 H          41.3073   69.8691  -36.8396 H       192        0    0.0000
   1157 H          40.2822   67.9279  -38.0832 H       192        0    0.0000
   1158 H          38.7246   68.7478  -38.0811 H       192        0    0.0000
   1159 C          40.1978   69.6604  -39.4102 C.3     193        0    0.0000
   1160 C          39.7868   68.8740  -40.6598 C.3     193        0    0.0000
   1161 H          39.7215   70.6488  -39.4142 H       193        0    0.0000
   1162 H          41.2812   69.8328  -39.4136 H       193        0    0.0000
   1163 H          38.6965   68.8993  -40.7786 H       193        0    0.0000
   1164 H          40.2122   69.3425  -41.5560 H       193        0    0.0000
   1165 C          40.2542   67.3788  -40.6012 C.3     194        0    0.0000
   1166 C          39.5831   66.5178  -41.6770 C.3     194        0    0.0000
   1167 H          41.3445   67.3443  -40.7178 H       194        0    0.0000
   1168 H          40.0310   66.9774  -39.6049 H       194        0    0.0000
   1169 H          40.3083   65.8118  -42.1002 H       194        0    0.0000
   1170 H          38.7811   65.9164  -41.2314 H       194        0    0.0000
   1171 C          38.9812   67.3812  -42.8389 C.3     195        0    0.0000
   1172 C          38.2633   66.5243  -43.8874 C.3     195        0    0.0000
   1173 H          38.2855   68.1137  -42.4112 H       195        0    0.0000
   1174 H          39.7902   67.9529  -43.3102 H       195        0    0.0000
   1175 H          38.9590   65.7918  -44.3150 H       195        0    0.0000
   1176 H          37.4543   65.9526  -43.4161 H       195        0    0.0000
   1177 H          37.8448   67.1246  -44.6952 H       195        0    0.0000
   1178 H         169.2798  122.4687  -40.4349 H         0        0    0.0000
@<TRIPOS>BOND
     1     1     2      1
     2     1     3      1
     3     1     4      1
     4     1  1178      H
     5     2     5      1
     6     2     6      1
     7     2     7      1
     8     7     8      1
     9     7     9      1
    10     7    10      1
    11     8    11      1
    12     8    12      1
    13     8    13      1
    14    13    14      1
    15    13    15      1
    16    13    16      1
    17    14    17      1
    18    14    18      1
    19    14    19      1
    20    19    20      1
    21    19    21      1
    22    19    22      1
    23    20    23      1
    24    20    24      1
    25    20    25      1
    26    25    26      1
    27    25    27      1
    28    25    28      1
    29    26    29      1
    30    26    30      1
    31    26    31      1
    32    31    32      1
    33    31    33      1
    34    31    34      1
    35    32    35      1
    36    32    36      1
    37    32    37      1
    38    37    38      1
    39    37    39      1
    40    37    40      1
    41    38    41      1
    42    38    42      1
    43    38    43      1
    44    43    44      1
    45    43    45      1
    46    43    46      1
    47    44    47      1
    48    44    48      1
    49    44    49      1
    50    49    50      1
    51    49    51      1
    52    49    52      1
    53    50    53      1
    54    50    54      1
    55    50    55      1
    56    55    56      1
    57    55    57      1
    58    55    58      1
    59    56    59      1
    60    56    60      1
    61    56    61      1
    62    61    62      1
    63    61    63      1
    64    61    64      1
    65    62    65      1
    66    62    66      1
    67    62    67      1
    68    67    68      1
    69    67    69      1
    70    67    70      1
    71    68    71      1
    72    68    72      1
    73    68    73      1
    74    73    74      1
    75    73    75      1
    76    73    76      1
    77    74    77      1
    78    74    78      1
    79    74    79      1
    80    79    80      1
    81    79    81      1
    82    79    82      1
    83    80    83      1
    84    80    84      1
    85    80    85      1
    86    85    86      1
    87    85    87      1
    88    85    88      1
    89    86    89      1
    90    86    90      1
    91    86    91      1
    92    91    92      1
    93    91    93      1
    94    91    94      1
    95    92    95      1
    96    92    96      1
    97    92    97      1
    98    97    98      1
    99    97    99      1
   100    97   100      1
   101    98   101      1
   102    98   102      1
   103    98   103      1
   104   103   104      1
   105   103   105      1
   106   103   106      1
   107   104   107      1
   108   104   108      1
   109   104   109      1
   110   109   110      1
   111   109   111      1
   112   109   112      1
   113   110   113      1
   114   110   114      1
   115   110   115      1
   116   115   116      1
   117   115   117      1
   118   115   118      1
   119   116   119      1
   120   116   120      1
   121   116   121      1
   122   121   122      1
   123   121   123      1
   124   121   124      1
   125   122   125      1
   126   122   126      1
   127   122   127      1
   128   127   128      1
   129   127   129      1
   130   127   130      1
   131   128   131      1
   132   128   132      1
   133   128   133      1
   134   133   134      1
   135   133   135      1
   136   133   136      1
   137   134   137      1
   138   134   138      1
   139   134   139      1
   140   139   140      1
   141   139   141      1
   142   139   142      1
   143   140   143      1
   144   140   144      1
   145   140   145      1
   146   145   146      1
   147   145   147      1
   148   145   148      1
   149   146   149      1
   150   146   150      1
   151   146   151      1
   152   151   152      1
   153   151   153      1
   154   151   154      1
   155   152   155      1
   156   152   156      1
   157   152   157      1
   158   157   158      1
   159   157   159      1
   160   157   160      1
   161   158   161      1
   162   158   162      1
   163   158   163      1
   164   163   164      1
   165   163   165      1
   166   163   166      1
   167   164   167      1
   168   164   168      1
   169   164   169      1
   170   169   170      1
   171   169   171      1
   172   169   172      1
   173   170   173      1
   174   170   174      1
   175   170   175      1
   176   175   176      1
   177   175   177      1
   178   175   178      1
   179   176   179      1
   180   176   180      1
   181   176   181      1
   182   181   182      1
   183   181   183      1
   184   181   184      1
   185   182   185      1
   186   182   186      1
   187   182   187      1
   188   187   188      1
   189   187   189      1
   190   187   190      1
   191   188   191      1
   192   188   192      1
   193   188   193      1
   194   193   194      1
   195   193   195      1
   196   193   196      1
   197   194   197      1
   198   194   198      1
   199   194   199      1
   200   199   200      1
   201   199   201      1
   202   199   202      1
   203   200   203      1
   204   200   204      1
   205   200   205      1
   206   205   206      1
   207   205   207      1
   208   205   208      1
   209   206   209      1
   210   206   210      1
   211   206   211      1
   212   211   212      1
   213   211   213      1
   214   211   214      1
   215   212   215      1
   216   212   216      1
   217   212   217      1
   218   217   218      1
   219   217   219      1
   220   217   220      1
   221   218   221      1
   222   218   222      1
   223   218   223      1
   224   223   224      1
   225   223   225      1
   226   223   226      1
   227   224   227      1
   228   224   228      1
   229   224   229      1
   230   229   230      1
   231   229   231      1
   232   229   232      1
   233   230   233      1
   234   230   234      1
   235   230   235      1
   236   235   236      1
   237   235   237      1
   238   235   238      1
   239   236   239      1
   240   236   240      1
   241   236   241      1
   242   241   242      1
   243   241   243      1
   244   241   244      1
   245   242   245      1
   246   242   246      1
   247   242   247      1
   248   247   248      1
   249   247   249      1
   250   247   250      1
   251   248   251      1
   252   248   252      1
   253   248   253      1
   254   253   254      1
   255   253   255      1
   256   253   256      1
   257   254   257      1
   258   254   258      1
   259   254   259      1
   260   259   260      1
   261   259   261      1
   262   259   262      1
   263   260   263      1
   264   260   264      1
   265   260   265      1
   266   265   266      1
   267   265   267      1
   268   265   268      1
   269   266   269      1
   270   266   270      1
   271   266   271      1
   272   271   272      1
   273   271   273      1
   274   271   274      1
   275   272   275      1
   276   272   276      1
   277   272   277      1
   278   277   278      1
   279   277   279      1
   280   277   280      1
   281   278   281      1
   282   278   282      1
   283   278   283      1
   284   283   284      1
   285   283   285      1
   286   283   286      1
   287   284   287      1
   288   284   288      1
   289   284   289      1
   290   289   290      1
   291   289   291      1
   292   289   292      1
   293   290   293      1
   294   290   294      1
   295   290   295      1
   296   295   296      1
   297   295   297      1
   298   295   298      1
   299   296   299      1
   300   296   300      1
   301   296   301      1
   302   301   302      1
   303   301   303      1
   304   301   304      1
   305   302   305      1
   306   302   306      1
   307   302   307      1
   308   307   308      1
   309   307   309      1
   310   307   310      1
   311   308   311      1
   312   308   312      1
   313   308   313      1
   314   313   314      1
   315   313   315      1
   316   313   316      1
   317   314   317      1
   318   314   318      1
   319   314   319      1
   320   319   320      1
   321   319   321      1
   322   319   322      1
   323   320   323      1
   324   320   324      1
   325   320   325      1
   326   325   326      1
   327   325   327      1
   328   325   328      1
   329   326   329      1
   330   326   330      1
   331   326   331      1
   332   331   332      1
   333   331   333      1
   334   331   334      1
   335   332   335      1
   336   332   336      1
   337   332   337      1
   338   337   338      1
   339   337   339      1
   340   337   340      1
   341   338   341      1
   342   338   342      1
   343   338   343      1
   344   343   344      1
   345   343   345      1
   346   343   346      1
   347   344   347      1
   348   344   348      1
   349   344   349      1
   350   349   350      1
   351   349   351      1
   352   349   352      1
   353   350   353      1
   354   350   354      1
   355   350   355      1
   356   355   356      1
   357   355   357      1
   358   355   358      1
   359   356   359      1
   360   356   360      1
   361   356   361      1
   362   361   362      1
   363   361   363      1
   364   361   364      1
   365   362   365      1
   366   362   366      1
   367   362   367      1
   368   367   368      1
   369   367   369      1
   370   367   370      1
   371   368   371      1
   372   368   372      1
   373   368   373      1
   374   373   374      1
   375   373   375      1
   376   373   376      1
   377   374   377      1
   378   374   378      1
   379   374   379      1
   380   379   380      1
   381   379   381      1
   382   379   382      1
   383   380   383      1
   384   380   384      1
   385   380   385      1
   386   385   386      1
   387   385   387      1
   388   385   388      1
   389   386   389      1
   390   386   390      1
   391   386   391      1
   392   391   392      1
   393   391   393      1
   394   391   394      1
   395   392   395      1
   396   392   396      1
   397   392   397      1
   398   397   398      1
   399   397   399      1
   400   397   400      1
   401   398   401      1
   402   398   402      1
   403   398   403      1
   404   403   404      1
   405   403   405      1
   406   403   406      1
   407   404   407      1
   408   404   408      1
   409   404   409      1
   410   409   410      1
   411   409   411      1
   412   409   412      1
   413   410   413      1
   414   410   414      1
   415   410   415      1
   416   415   416      1
   417   415   417      1
   418   415   418      1
   419   416   419      1
   420   416   420      1
   421   416   421      1
   422   421   422      1
   423   421   423      1
   424   421   424      1
   425   422   425      1
   426   422   426      1
   427   422   427      1
   428   427   428      1
   429   427   429      1
   430   427   430      1
   431   428   431      1
   432   428   432      1
   433   428   433      1
   434   433   434      1
   435   433   435      1
   436   433   436      1
   437   434   437      1
   438   434   438      1
   439   434   439      1
   440   439   440      1
   441   439   441      1
   442   439   442      1
   443   440   443      1
   444   440   444      1
   445   440   445      1
   446   445   446      1
   447   445   447      1
   448   445   448      1
   449   446   449      1
   450   446   450      1
   451   446   451      1
   452   451   452      1
   453   451   453      1
   454   451   454      1
   455   452   455      1
   456   452   456      1
   457   452   457      1
   458   457   458      1
   459   457   459      1
   460   457   460      1
   461   458   461      1
   462   458   462      1
   463   458   463      1
   464   463   464      1
   465   463   465      1
   466   463   466      1
   467   464   467      1
   468   464   468      1
   469   464   469      1
   470   469   470      1
   471   469   471      1
   472   469   472      1
   473   470   473      1
   474   470   474      1
   475   470   475      1
   476   475   476      1
   477   475   477      1
   478   475   478      1
   479   476   479      1
   480   476   480      1
   481   476   481      1
   482   481   482      1
   483   481   483      1
   484   481   484      1
   485   482   485      1
   486   482   486      1
   487   482   487      1
   488   487   488      1
   489   487   489      1
   490   487   490      1
   491   488   491      1
   492   488   492      1
   493   488   493      1
   494   493   494      1
   495   493   495      1
   496   493   496      1
   497   494   497      1
   498   494   498      1
   499   494   499      1
   500   499   500      1
   501   499   501      1
   502   499   502      1
   503   500   503      1
   504   500   504      1
   505   500   505      1
   506   505   506      1
   507   505   507      1
   508   505   508      1
   509   506   509      1
   510   506   510      1
   511   506   511      1
   512   511   512      1
   513   511   513      1
   514   511   514      1
   515   512   515      1
   516   512   516      1
   517   512   517      1
   518   517   518      1
   519   517   519      1
   520   517   520      1
   521   518   521      1
   522   518   522      1
   523   518   523      1
   524   523   524      1
   525   523   525      1
   526   523   526      1
   527   524   527      1
   528   524   528      1
   529   524   529      1
   530   529   530      1
   531   529   531      1
   532   529   532      1
   533   530   533      1
   534   530   534      1
   535   530   535      1
   536   535   536      1
   537   535   537      1
   538   535   538      1
   539   536   539      1
   540   536   540      1
   541   536   541      1
   542   541   542      1
   543   541   543      1
   544   541   544      1
   545   542   545      1
   546   542   546      1
   547   542   547      1
   548   547   548      1
   549   547   549      1
   550   547   550      1
   551   548   551      1
   552   548   552      1
   553   548   553      1
   554   553   554      1
   555   553   555      1
   556   553   556      1
   557   554   557      1
   558   554   558      1
   559   554   559      1
   560   559   560      1
   561   559   561      1
   562   559   562      1
   563   560   563      1
   564   560   564      1
   565   560   565      1
   566   565   566      1
   567   565   567      1
   568   565   568      1
   569   566   569      1
   570   566   570      1
   571   566   571      1
   572   571   572      1
   573   571   573      1
   574   571   574      1
   575   572   575      1
   576   572   576      1
   577   572   577      1
   578   577   578      1
   579   577   579      1
   580   577   580      1
   581   578   581      1
   582   578   582      1
   583   578   583      1
   584   583   584      1
   585   583   585      1
   586   583   586      1
   587   584   587      1
   588   584   588      1
   589   584   589      1
   590   589   590      1
   591   589   591      1
   592   589   592      1
   593   590   593      1
   594   590   594      1
   595   590   595      1
   596   595   596      1
   597   595   597      1
   598   595   598      1
   599   596   599      1
   600   596   600      1
   601   596   601      1
   602   601   602      1
   603   601   603      1
   604   601   604      1
   605   602   605      1
   606   602   606      1
   607   602   607      1
   608   607   608      1
   609   607   609      1
   610   607   610      1
   611   608   611      1
   612   608   612      1
   613   608   613      1
   614   613   614      1
   615   613   615      1
   616   613   616      1
   617   614   617      1
   618   614   618      1
   619   614   619      1
   620   619   620      1
   621   619   621      1
   622   619   622      1
   623   620   623      1
   624   620   624      1
   625   620   625      1
   626   625   626      1
   627   625   627      1
   628   625   628      1
   629   626   629      1
   630   626   630      1
   631   626   631      1
   632   631   632      1
   633   631   633      1
   634   631   634      1
   635   632   635      1
   636   632   636      1
   637   632   637      1
   638   637   638      1
   639   637   639      1
   640   637   640      1
   641   638   641      1
   642   638   642      1
   643   638   643      1
   644   643   644      1
   645   643   645      1
   646   643   646      1
   647   644   647      1
   648   644   648      1
   649   644   649      1
   650   649   650      1
   651   649   651      1
   652   649   652      1
   653   650   653      1
   654   650   654      1
   655   650   655      1
   656   655   656      1
   657   655   657      1
   658   655   658      1
   659   656   659      1
   660   656   660      1
   661   656   661      1
   662   661   662      1
   663   661   663      1
   664   661   664      1
   665   662   665      1
   666   662   666      1
   667   662   667      1
   668   667   668      1
   669   667   669      1
   670   667   670      1
   671   668   671      1
   672   668   672      1
   673   668   673      1
   674   673   674      1
   675   673   675      1
   676   673   676      1
   677   674   677      1
   678   674   678      1
   679   674   679      1
   680   679   680      1
   681   679   681      1
   682   679   682      1
   683   680   683      1
   684   680   684      1
   685   680   685      1
   686   685   686      1
   687   685   687      1
   688   685   688      1
   689   686   689      1
   690   686   690      1
   691   686   691      1
   692   691   692      1
   693   691   693      1
   694   691   694      1
   695   692   695      1
   696   692   696      1
   697   692   697      1
   698   697   698      1
   699   697   699      1
   700   697   700      1
   701   698   701      1
   702   698   702      1
   703   698   703      1
   704   703   704      1
   705   703   705      1
   706   703   706      1
   707   704   707      1
   708   704   708      1
   709   704   709      1
   710   709   710      1
   711   709   711      1
   712   709   712      1
   713   710   713      1
   714   710   714      1
   715   710   715      1
   716   715   716      1
   717   715   717      1
   718   715   718      1
   719   716   719      1
   720   716   720      1
   721   716   721      1
   722   721   722      1
   723   721   723      1
   724   721   724      1
   725   722   725      1
   726   722   726      1
   727   722   727      1
   728   727   728      1
   729   727   729      1
   730   727   730      1
   731   728   731      1
   732   728   732      1
   733   728   733      1
   734   733   734      1
   735   733   735      1
   736   733   736      1
   737   734   737      1
   738   734   738      1
   739   734   739      1
   740   739   740      1
   741   739   741      1
   742   739   742      1
   743   740   743      1
   744   740   744      1
   745   740   745      1
   746   745   746      1
   747   745   747      1
   748   745   748      1
   749   746   749      1
   750   746   750      1
   751   746   751      1
   752   751   752      1
   753   751   753      1
   754   751   754      1
   755   752   755      1
   756   752   756      1
   757   752   757      1
   758   757   758      1
   759   757   759      1
   760   757   760      1
   761   758   761      1
   762   758   762      1
   763   758   763      1
   764   763   764      1
   765   763   765      1
   766   763   766      1
   767   764   767      1
   768   764   768      1
   769   764   769      1
   770   769   770      1
   771   769   771      1
   772   769   772      1
   773   770   773      1
   774   770   774      1
   775   770   775      1
   776   775   776      1
   777   775   777      1
   778   775   778      1
   779   776   779      1
   780   776   780      1
   781   776   781      1
   782   781   782      1
   783   781   783      1
   784   781   784      1
   785   782   785      1
   786   782   786      1
   787   782   787      1
   788   787   788      1
   789   787   789      1
   790   787   790      1
   791   788   791      1
   792   788   792      1
   793   788   793      1
   794   793   794      1
   795   793   795      1
   796   793   796      1
   797   794   797      1
   798   794   798      1
   799   794   799      1
   800   799   800      1
   801   799   801      1
   802   799   802      1
   803   800   803      1
   804   800   804      1
   805   800   805      1
   806   805   806      1
   807   805   807      1
   808   805   808      1
   809   806   809      1
   810   806   810      1
   811   806   811      1
   812   811   812      1
   813   811   813      1
   814   811   814      1
   815   812   815      1
   816   812   816      1
   817   812   817      1
   818   817   818      1
   819   817   819      1
   820   817   820      1
   821   818   821      1
   822   818   822      1
   823   818   823      1
   824   823   824      1
   825   823   825      1
   826   823   826      1
   827   824   827      1
   828   824   828      1
   829   824   829      1
   830   829   830      1
   831   829   831      1
   832   829   832      1
   833   830   833      1
   834   830   834      1
   835   830   835      1
   836   835   836      1
   837   835   837      1
   838   835   838      1
   839   836   839      1
   840   836   840      1
   841   836   841      1
   842   841   842      1
   843   841   843      1
   844   841   844      1
   845   842   845      1
   846   842   846      1
   847   842   847      1
   848   847   848      1
   849   847   849      1
   850   847   850      1
   851   848   851      1
   852   848   852      1
   853   848   853      1
   854   853   854      1
   855   853   855      1
   856   853   856      1
   857   854   857      1
   858   854   858      1
   859   854   859      1
   860   859   860      1
   861   859   861      1
   862   859   862      1
   863   860   863      1
   864   860   864      1
   865   860   865      1
   866   865   866      1
   867   865   867      1
   868   865   868      1
   869   866   869      1
   870   866   870      1
   871   866   871      1
   872   871   872      1
   873   871   873      1
   874   871   874      1
   875   872   875      1
   876   872   876      1
   877   872   877      1
   878   877   878      1
   879   877   879      1
   880   877   880      1
   881   878   881      1
   882   878   882      1
   883   878   883      1
   884   883   884      1
   885   883   885      1
   886   883   886      1
   887   884   887      1
   888   884   888      1
   889   884   889      1
   890   889   890      1
   891   889   891      1
   892   889   892      1
   893   890   893      1
   894   890   894      1
   895   890   895      1
   896   895   896      1
   897   895   897      1
   898   895   898      1
   899   896   899      1
   900   896   900      1
   901   896   901      1
   902   901   902      1
   903   901   903      1
   904   901   904      1
   905   902   905      1
   906   902   906      1
   907   902   907      1
   908   907   908      1
   909   907   909      1
   910   907   910      1
   911   908   911      1
   912   908   912      1
   913   908   913      1
   914   913   914      1
   915   913   915      1
   916   913   916      1
   917   914   917      1
   918   914   918      1
   919   914   919      1
   920   919   920      1
   921   919   921      1
   922   919   922      1
   923   920   923      1
   924   920   924      1
   925   920   925      1
   926   925   926      1
   927   925   927      1
   928   925   928      1
   929   926   929      1
   930   926   930      1
   931   926   931      1
   932   931   932      1
   933   931   933      1
   934   931   934      1
   935   932   935      1
   936   932   936      1
   937   932   937      1
   938   937   938      1
   939   937   939      1
   940   937   940      1
   941   938   941      1
   942   938   942      1
   943   938   943      1
   944   943   944      1
   945   943   945      1
   946   943   946      1
   947   944   947      1
   948   944   948      1
   949   944   949      1
   950   949   950      1
   951   949   951      1
   952   949   952      1
   953   950   953      1
   954   950   954      1
   955   950   955      1
   956   955   956      1
   957   955   957      1
   958   955   958      1
   959   956   959      1
   960   956   960      1
   961   956   961      1
   962   961   962      1
   963   961   963      1
   964   961   964      1
   965   962   965      1
   966   962   966      1
   967   962   967      1
   968   967   968      1
   969   967   969      1
   970   967   970      1
   971   968   971      1
   972   968   972      1
   973   968   973      1
   974   973   974      1
   975   973   975      1
   976   973   976      1
   977   974   977      1
   978   974   978      1
   979   974   979      1
   980   979   980      1
   981   979   981      1
   982   979   982      1
   983   980   983      1
   984   980   984      1
   985   980   985      1
   986   985   986      1
   987   985   987      1
   988   985   988      1
   989   986   989      1
   990   986   990      1
   991   986   991      1
   992   991   992      1
   993   991   993      1
   994   991   994      1
   995   992   995      1
   996   992   996      1
   997   992   997      1
   998   997   998      1
   999   997   999      1
  1000   997  1000      1
  1001   998  1001      1
  1002   998  1002      1
  1003   998  1003      1
  1004  1003  1004      1
  1005  1003  1005      1
  1006  1003  1006      1
  1007  1004  1007      1
  1008  1004  1008      1
  1009  1004  1009      1
  1010  1009  1010      1
  1011  1009  1011      1
  1012  1009  1012      1
  1013  1010  1013      1
  1014  1010  1014      1
  1015  1010  1015      1
  1016  1015  1016      1
  1017  1015  1017      1
  1018  1015  1018      1
  1019  1016  1019      1
  1020  1016  1020      1
  1021  1016  1021      1
  1022  1021  1022      1
  1023  1021  1023      1
  1024  1021  1024      1
  1025  1022  1025      1
  1026  1022  1026      1
  1027  1022  1027      1
  1028  1027  1028      1
  1029  1027  1029      1
  1030  1027  1030      1
  1031  1028  1031      1
  1032  1028  1032      1
  1033  1028  1033      1
  1034  1033  1034      1
  1035  1033  1035      1
  1036  1033  1036      1
  1037  1034  1037      1
  1038  1034  1038      1
  1039  1034  1039      1
  1040  1039  1040      1
  1041  1039  1041      1
  1042  1039  1042      1
  1043  1040  1043      1
  1044  1040  1044      1
  1045  1040  1045      1
  1046  1045  1046      1
  1047  1045  1047      1
  1048  1045  1048      1
  1049  1046  1049      1
  1050  1046  1050      1
  1051  1046  1051      1
  1052  1051  1052      1
  1053  1051  1053      1
  1054  1051  1054      1
  1055  1052  1055      1
  1056  1052  1056      1
  1057  1052  1057      1
  1058  1057  1058      1
  1059  1057  1059      1
  1060  1057  1060      1
  1061  1058  1061      1
  1062  1058  1062      1
  1063  1058  1063      1
  1064  1063  1064      1
  1065  1063  1065      1
  1066  1063  1066      1
  1067  1064  1067      1
  1068  1064  1068      1
  1069  1064  1069      1
  1070  1069  1070      1
  1071  1069  1071      1
  1072  1069  1072      1
  1073  1070  1073      1
  1074  1070  1074      1
  1075  1070  1075      1
  1076  1075  1076      1
  1077  1075  1077      1
  1078  1075  1078      1
  1079  1076  1079      1
  1080  1076  1080      1
  1081  1076  1081      1
  1082  1081  1082      1
  1083  1081  1083      1
  1084  1081  1084      1
  1085  1082  1085      1
  1086  1082  1086      1
  1087  1082  1087      1
  1088  1087  1088      1
  1089  1087  1089      1
  1090  1087  1090      1
  1091  1088  1091      1
  1092  1088  1092      1
  1093  1088  1093      1
  1094  1093  1094      1
  1095  1093  1095      1
  1096  1093  1096      1
  1097  1094  1097      1
  1098  1094  1098      1
  1099  1094  1099      1
  1100  1099  1100      1
  1101  1099  1101      1
  1102  1099  1102      1
  1103  1100  1103      1
  1104  1100  1104      1
  1105  1100  1105      1
  1106  1105  1106      1
  1107  1105  1107      1
  1108  1105  1108      1
  1109  1106  1109      1
  1110  1106  1110      1
  1111  1106  1111      1
  1112  1111  1112      1
  1113  1111  1113      1
  1114  1111  1114      1
  1115  1112  1115      1
  1116  1112  1116      1
  1117  1112  1117      1
  1118  1117  1118      1
  1119  1117  1119      1
  1120  1117  1120      1
  1121  1118  1121      1
  1122  1118  1122      1
  1123  1118  1123      1
  1124  1123  1124      1
  1125  1123  1125      1
  1126  1123  1126      1
  1127  1124  1127      1
  1128  1124  1128      1
  1129  1124  1129      1
  1130  1129  1130      1
  1131  1129  1131      1
  1132  1129  1132      1
  1133  1130  1133      1
  1134  1130  1134      1
  1135  1130  1135      1
  1136  1135  1136      1
  1137  1135  1137      1
  1138  1135  1138      1
  1139  1136  1139      1
  1140  1136  1140      1
  1141  1136  1141      1
  1142  1141  1142      1
  1143  1141  1143      1
  1144  1141  1144      1
  1145  1142  1145      1
  1146  1142  1146      1
  1147  1142  1147      1
  1148  1147  1148      1
  1149  1147  1149      1
  1150  1147  1150      1
  1151  1148  1151      1
  1152  1148  1152      1
  1153  1148  1153      1
  1154  1153  1154      1
  1155  1153  1155      1
  1156  1153  1156      1
  1157  1154  1157      1
  1158  1154  1158      1
  1159  1154  1159      1
  1160  1159  1160      1
  1161  1159  1161      1
  1162  1159  1162      1
  1163  1160  1163      1
  1164  1160  1164      1
  1165  1160  1165      1
  1166  1165  1166      1
  1167  1165  1167      1
  1168  1165  1168      1
  1169  1166  1169      1
  1170  1166  1170      1
  1171  1166  1171      1
  1172  1171  1172      1
  1173  1171  1173      1
  1174  1171  1174      1
  1175  1172  1175      1
  1176  1172  1176      1
  1177  1172  1177      H
