###
### Created by PolyChef-cpp17 on Thu Feb 27 19:40:28 2025
###

@<TRIPOS>MOLECULE
NO_INFO
302 301 1 0 0
SMALL
USER_CHARGES


@<TRIPOS>ATOM
      1 C         179.2798  174.4287  120.6551 C.3       0        0    0.0000
      2 C         178.4513  173.2775  120.0742 C.3       0        0    0.0000
      3 H         178.8875  175.3902  120.3015 H         0        0    0.0000
      4 H         180.3162  174.3620  120.3014 H         0        0    0.0000
      5 H         178.4069  172.4474  120.7901 H         0        0    0.0000
      6 H         177.4176  173.6049  119.9070 H         0        0    0.0000
      7 C         179.0383  172.7468  118.7210 C.3       1        0    0.0000
      8 C         179.6359  173.8703  117.8668 C.3       1        0    0.0000
      9 H         179.8043  171.9924  118.9395 H         1        0    0.0000
     10 H         178.2418  172.2356  118.1663 H         1        0    0.0000
     11 H         178.9470  174.7234  117.8319 H         1        0    0.0000
     12 H         180.5656  174.2346  118.3213 H         1        0    0.0000
     13 C         179.9387  173.4051  116.4007 C.3       2        0    0.0000
     14 C         179.8987  174.5674  115.4025 C.3       2        0    0.0000
     15 H         180.9245  172.9242  116.3788 H         2        0    0.0000
     16 H         179.2078  172.6385  116.1149 H         2        0    0.0000
     17 H         178.9852  175.1572  115.5483 H         2        0    0.0000
     18 H         180.7429  175.2451  115.5802 H         2        0    0.0000
     19 C         179.9503  174.0752  113.9150 C.3       3        0    0.0000
     20 C         179.8262  175.2309  112.9161 C.3       3        0    0.0000
     21 H         180.8928  173.5376  113.7530 H         3        0    0.0000
     22 H         179.1426  173.3505  113.7542 H         3        0    0.0000
     23 H         178.8912  175.7783  113.0884 H         3        0    0.0000
     24 H         180.6431  175.9476  113.0666 H         3        0    0.0000
     25 C         179.8554  174.7364  111.4288 C.3       4        0    0.0000
     26 C         180.0539  175.8883  110.4374 C.3       4        0    0.0000
     27 H         180.6612  174.0005  111.3166 H         4        0    0.0000
     28 H         178.9168  174.2113  111.2123 H         4        0    0.0000
     29 H         179.2247  176.6019  110.5191 H         4        0    0.0000
     30 H         180.9700  176.4406  110.6810 H         4        0    0.0000
     31 C         180.1451  175.3871  108.9549 C.3       5        0    0.0000
     32 C         179.2051  176.1587  108.0221 C.3       5        0    0.0000
     33 H         181.1820  175.4874  108.6109 H         5        0    0.0000
     34 H         179.9064  174.3167  108.9281 H         5        0    0.0000
     35 H         178.2397  176.3263  108.5155 H         5        0    0.0000
     36 H         179.6227  177.1491  107.8024 H         5        0    0.0000
     37 C         178.9576  175.4036  106.6708 C.3       6        0    0.0000
     38 C         179.4904  176.1833  105.4636 C.3       6        0    0.0000
     39 H         179.4369  174.4182  106.7234 H         6        0    0.0000
     40 H         177.8811  175.2246  106.5577 H         6        0    0.0000
     41 H         178.7318  176.8921  105.1090 H         6        0    0.0000
     42 H         180.3648  176.7778  105.7560 H         6        0    0.0000
     43 C         179.8940  175.2402  104.2783 C.3       7        0    0.0000
     44 C         179.4639  175.8003  102.9180 C.3       7        0    0.0000
     45 H         180.9809  175.0930  104.2978 H         7        0    0.0000
     46 H         179.4397  174.2548  104.4400 H         7        0    0.0000
     47 H         178.4196  176.1335  102.9616 H         7        0    0.0000
     48 H         180.0658  176.6825  102.6671 H         7        0    0.0000
     49 C         179.6100  174.7451  101.7679 C.3       8        0    0.0000
     50 C         179.5112  175.3834  100.3780 C.3       8        0    0.0000
     51 H         180.5735  174.2325  101.8787 H         8        0    0.0000
     52 H         178.8313  173.9817  101.8875 H         8        0    0.0000
     53 H         178.5225  175.8392  100.2428 H         8        0    0.0000
     54 H         180.2465  176.1919  100.2822 H         8        0    0.0000
     55 C         179.7500  174.3444   99.2287 C.3       9        0    0.0000
     56 C         179.6146  174.9749   97.8383 C.3       9        0    0.0000
     57 H         180.7495  173.9084   99.3483 H         9        0    0.0000
     58 H         179.0322  173.5223   99.3405 H         9        0    0.0000
     59 H         178.6171  175.4162   97.7209 H         9        0    0.0000
     60 H         180.3364  175.7931   97.7244 H         9        0    0.0000
     61 C         179.8452  173.9340   96.6890 C.3      10        0    0.0000
     62 C         179.7113  174.5648   95.2986 C.3      10        0    0.0000
     63 H         180.8423  173.4920   96.8071 H        10        0    0.0000
     64 H         179.1226  173.1163   96.8023 H        10        0    0.0000
     65 H         178.7169  175.0137   95.1834 H        10        0    0.0000
     66 H         180.4391  175.3775   95.1826 H        10        0    0.0000
     67 C         179.9311  173.5217   94.1493 C.3      11        0    0.0000
     68 C         179.7987  174.1528   92.7589 C.3      11        0    0.0000
     69 H         180.9250  173.0721   94.2652 H        11        0    0.0000
     70 H         179.2026  172.7096   94.2647 H        11        0    0.0000
     71 H         178.8037  174.6000   92.6420 H        11        0    0.0000
     72 H         180.5253  174.9667   92.6445 H        11        0    0.0000
     73 C         180.0224  173.1105   91.6096 C.3      12        0    0.0000
     74 C         179.8840  173.7403   90.2192 C.3      12        0    0.0000
     75 H         181.0191  172.6665   91.7239 H        12        0    0.0000
     76 H         179.2988  172.2943   91.7266 H        12        0    0.0000
     77 H         178.8864  174.1818   90.1039 H        12        0    0.0000
     78 H         180.6058  174.5583   90.1032 H        12        0    0.0000
     79 C         180.1116  172.6988   89.0699 C.3      13        0    0.0000
     80 C         179.9715  173.3283   87.6795 C.3      13        0    0.0000
     81 H         181.1097  172.2581   89.1845 H        13        0    0.0000
     82 H         179.3905  171.8802   89.1866 H        13        0    0.0000
     83 H         178.9691  173.7577   87.5602 H        13        0    0.0000
     84 H         180.6838  174.1551   87.5674 H        13        0    0.0000
     85 C         180.2168  172.2908   86.5302 C.3      14        0    0.0000
     86 C         180.0767  172.9202   85.1398 C.3      14        0    0.0000
     87 H         181.2193  171.8614   86.6494 H        14        0    0.0000
     88 H         179.5045  171.4639   86.6422 H        14        0    0.0000
     89 H         179.0625  173.3167   85.0068 H        14        0    0.0000
     90 H         180.7628  173.7706   85.0409 H        14        0    0.0000
     91 C         180.3733  171.8955   83.9911 C.3      15        0    0.0000
     92 C         180.2379  172.5262   82.6008 C.3      15        0    0.0000
     93 H         181.3862  171.4964   84.1261 H        15        0    0.0000
     94 H         179.6848  171.0468   84.0878 H        15        0    0.0000
     95 H         179.3309  173.1417   82.5536 H        15        0    0.0000
     96 H         181.0842  173.1971   82.4080 H        15        0    0.0000
     97 C         180.1775  171.4494   81.4632 C.3      16        0    0.0000
     98 C         180.0299  172.0797   80.0739 C.3      16        0    0.0000
     99 H         181.0885  170.8396   81.5047 H        16        0    0.0000
    100 H         179.3365  170.7731   81.6607 H        16        0    0.0000
    101 H         180.8583  171.7639   79.4277 H        16        0    0.0000
    102 H         179.1066  171.7276   79.5973 H        16        0    0.0000
    103 C         180.0031  173.6460   80.1320 C.3      17        0    0.0000
    104 C         179.7601  174.2742   78.7553 C.3      17        0    0.0000
    105 H         179.2197  173.9605   80.8326 H        17        0    0.0000
    106 H         180.9557  174.0009   80.5445 H        17        0    0.0000
    107 H         179.6448  175.3608   78.8527 H        17        0    0.0000
    108 H         180.6289  174.1065   78.1067 H        17        0    0.0000
    109 C         178.4853  173.6917   78.0531 C.3      18        0    0.0000
    110 C         178.3610  174.1553   76.5975 C.3      18        0    0.0000
    111 H         178.5270  172.5963   78.0967 H        18        0    0.0000
    112 H         177.5980  173.9962   78.6219 H        18        0    0.0000
    113 H         178.5865  173.3246   75.9175 H        18        0    0.0000
    114 H         177.3291  174.4631   76.3876 H        18        0    0.0000
    115 C         179.3212  175.3506   76.2707 C.3      19        0    0.0000
    116 C         179.2207  175.7928   74.8066 C.3      19        0    0.0000
    117 H         179.0796  176.1900   76.9345 H        19        0    0.0000
    118 H         180.3506  175.0511   76.5034 H        19        0    0.0000
    119 H         179.7522  176.7417   74.6629 H        19        0    0.0000
    120 H         179.7095  175.0563   74.1569 H        19        0    0.0000
    121 C         177.7346  175.9705   74.3403 C.3      20        0    0.0000
    122 C         177.6354  176.4951   72.9037 C.3      20        0    0.0000
    123 H         177.2197  175.0054   74.4248 H        20        0    0.0000
    124 H         177.2281  176.6590   75.0281 H        20        0    0.0000
    125 H         178.5729  176.3030   72.3675 H        20        0    0.0000
    126 H         176.8466  175.9593   72.3612 H        20        0    0.0000
    127 C         177.3297  178.0318   72.8522 C.3      21        0    0.0000
    128 C         177.0069  178.5126   71.4331 C.3      21        0    0.0000
    129 H         176.4888  178.2477   73.5229 H        21        0    0.0000
    130 H         178.1955  178.5780   73.2466 H        21        0    0.0000
    131 H         177.9345  178.6638   70.8671 H        21        0    0.0000
    132 H         176.4326  177.7463   70.8979 H        21        0    0.0000
    133 C         176.1897  179.8503   71.4306 C.3      22        0    0.0000
    134 C         175.9023  180.3527   70.0114 C.3      22        0    0.0000
    135 H         175.2483  179.6906   71.9708 H        22        0    0.0000
    136 H         176.7502  180.6083   71.9917 H        22        0    0.0000
    137 H         176.8432  180.4989   69.4664 H        22        0    0.0000
    138 H         175.3295  179.6006   69.4549 H        22        0    0.0000
    139 C         175.1024  181.7009   70.0090 C.3      23        0    0.0000
    140 C         174.9029  182.2554   68.5942 C.3      23        0    0.0000
    141 H         174.1297  181.5358   70.4889 H        23        0    0.0000
    142 H         175.6387  182.4314   70.6272 H        23        0    0.0000
    143 H         175.8745  182.3940   68.1040 H        23        0    0.0000
    144 H         174.3419  181.5367   67.9841 H        23        0    0.0000
    145 C         174.1375  183.6236   68.5948 C.3      24        0    0.0000
    146 C         172.9680  183.6353   67.6043 C.3      24        0    0.0000
    147 H         173.7729  183.8243   69.6098 H        24        0    0.0000
    148 H         174.8457  184.4250   68.3502 H        24        0    0.0000
    149 H         173.2866  184.0755   66.6513 H        24        0    0.0000
    150 H         172.6496  182.6083   67.3860 H        24        0    0.0000
    151 C         171.7378  184.4412   68.1470 C.3      25        0    0.0000
    152 C         171.7991  185.9236   67.7624 C.3      25        0    0.0000
    153 H         170.8182  183.9887   67.7558 H        25        0    0.0000
    154 H         171.7005  184.3370   69.2385 H        25        0    0.0000
    155 H         172.4696  186.0624   66.9052 H        25        0    0.0000
    156 H         170.8078  186.2715   67.4464 H        25        0    0.0000
    157 C         172.2975  186.8241   68.9448 C.3      26        0    0.0000
    158 C         171.3441  187.9901   69.2287 C.3      26        0    0.0000
    159 H         172.4077  186.2014   69.8413 H        26        0    0.0000
    160 H         173.2968  187.2059   68.7016 H        26        0    0.0000
    161 H         171.7016  188.8986   68.7284 H        26        0    0.0000
    162 H         170.3511  187.7731   68.8159 H        26        0    0.0000
    163 C         171.2013  188.2808   70.7625 C.3      27        0    0.0000
    164 C         169.7642  188.6419   71.1539 C.3      27        0    0.0000
    165 H         171.5329  187.3974   71.3222 H        27        0    0.0000
    166 H         171.8814  189.0983   71.0323 H        27        0    0.0000
    167 H         169.4870  189.6092   70.7167 H        27        0    0.0000
    168 H         169.0657  187.9004   70.7466 H        27        0    0.0000
    169 C         169.5725  188.7164   72.7080 C.3      28        0    0.0000
    170 C         168.9940  190.0624   73.1581 C.3      28        0    0.0000
    171 H         168.9118  187.8990   73.0223 H        28        0    0.0000
    172 H         170.5413  188.5424   73.1925 H        28        0    0.0000
    173 H         169.3266  190.8598   72.4820 H        28        0    0.0000
    174 H         167.8987  190.0386   73.1023 H        28        0    0.0000
    175 C         169.4176  190.4315   74.6216 C.3      29        0    0.0000
    176 C         168.2134  190.5513   75.5621 C.3      29        0    0.0000
    177 H         170.1102  189.6661   74.9929 H        29        0    0.0000
    178 H         169.9742  191.3767   74.6009 H        29        0    0.0000
    179 H         167.7376  191.5324   75.4410 H        29        0    0.0000
    180 H         167.4570  189.8003   75.3023 H        29        0    0.0000
    181 C         168.6136  190.3661   77.0664 C.3      30        0    0.0000
    182 C         167.9181  191.3799   77.9816 C.3      30        0    0.0000
    183 H         168.3612  189.3445   77.3762 H        30        0    0.0000
    184 H         169.7027  190.4628   77.1570 H        30        0    0.0000
    185 H         167.9955  192.3874   77.5544 H        30        0    0.0000
    186 H         166.8479  191.1495   78.0533 H        30        0    0.0000
    187 C         168.5297  191.3947   79.4249 C.3      31        0    0.0000
    188 C         167.4590  191.5686   80.5077 C.3      31        0    0.0000
    189 H         169.0789  190.4588   79.5858 H        31        0    0.0000
    190 H         169.2650  192.2064   79.4891 H        31        0    0.0000
    191 H         167.0606  192.5904   80.4820 H        31        0    0.0000
    192 H         166.6144  190.8961   80.3129 H        31        0    0.0000
    193 C         168.0147  191.2789   81.9446 C.3      32        0    0.0000
    194 C         167.4659  192.2583   82.9880 C.3      32        0    0.0000
    195 H         167.7567  190.2495   82.2226 H        32        0    0.0000
    196 H         169.1101  191.3328   81.9177 H        32        0    0.0000
    197 H         167.5526  193.2880   82.6196 H        32        0    0.0000
    198 H         166.3976  192.0719   83.1536 H        32        0    0.0000
    199 C         168.2167  192.1475   84.3596 C.3      33        0    0.0000
    200 C         167.2628  191.8494   85.5216 C.3      33        0    0.0000
    201 H         168.9759  191.3591   84.2845 H        33        0    0.0000
    202 H         168.7542  193.0857   84.5454 H        33        0    0.0000
    203 H         166.7815  192.7753   85.8602 H        33        0    0.0000
    204 H         166.4597  191.1811   85.1870 H        33        0    0.0000
    205 C         167.9970  191.1874   86.7382 C.3      34        0    0.0000
    206 C         167.6211  191.8444   88.0709 C.3      34        0    0.0000
    207 H         167.7489  190.1191   86.7623 H        34        0    0.0000
    208 H         169.0801  191.2558   86.5774 H        34        0    0.0000
    209 H         167.6477  192.9367   87.9726 H        34        0    0.0000
    210 H         166.5928  191.5777   88.3450 H        34        0    0.0000
    211 C         168.5808  191.4183   89.2349 C.3      35        0    0.0000
    212 C         167.9762  191.6928   90.6162 C.3      35        0    0.0000
    213 H         168.8111  190.3508   89.1305 H        35        0    0.0000
    214 H         169.5300  191.9575   89.1259 H        35        0    0.0000
    215 H         167.8266  192.7709   90.7539 H        35        0    0.0000
    216 H         166.9868  191.2252   90.6935 H        35        0    0.0000
    217 C         168.8811  191.1558   91.7783 C.3      36        0    0.0000
    218 C         168.3069  191.4843   93.1608 C.3      36        0    0.0000
    219 H         168.9936  190.0703   91.6659 H        36        0    0.0000
    220 H         169.8837  191.5889   91.6747 H        36        0    0.0000
    221 H         168.1789  192.5687   93.2670 H        36        0    0.0000
    222 H         167.3110  191.0374   93.2704 H        36        0    0.0000
    223 C         169.2234  190.9675   94.3228 C.3      37        0    0.0000
    224 C         168.6449  191.2882   95.7054 C.3      37        0    0.0000
    225 H         169.3568  189.8842   94.2129 H        37        0    0.0000
    226 H         170.2174  191.4196   94.2169 H        37        0    0.0000
    227 H         168.5100  192.3714   95.8147 H        37        0    0.0000
    228 H         167.6516  190.8347   95.8119 H        37        0    0.0000
    229 C         169.5625  190.7734   96.8674 C.3      38        0    0.0000
    230 C         168.9808  191.0884   98.2500 C.3      38        0    0.0000
    231 H         169.7012  189.6909   96.7554 H        38        0    0.0000
    232 H         170.5544  191.2305   96.7637 H        38        0    0.0000
    233 H         168.8402  192.1707   98.3613 H        38        0    0.0000
    234 H         167.9897  190.6296   98.3545 H        38        0    0.0000
    235 C         169.8998  190.5760   99.4120 C.3      39        0    0.0000
    236 C         169.3205  190.8954  100.7946 C.3      39        0    0.0000
    237 H         170.0374  189.4932   99.3028 H        39        0    0.0000
    238 H         170.8919  191.0320   99.3054 H        39        0    0.0000
    239 H         169.1842  191.9784  100.9043 H        39        0    0.0000
    240 H         168.3278  190.4406  100.9007 H        39        0    0.0000
    241 C         170.2386  190.3814  101.9566 C.3      40        0    0.0000
    242 C         169.6632  190.7077  103.3392 C.3      40        0    0.0000
    243 H         170.3702  189.2975  101.8502 H        40        0    0.0000
    244 H         171.2330  190.8318  101.8472 H        40        0    0.0000
    245 H         169.5336  191.7918  103.4464 H        40        0    0.0000
    246 H         168.6678  190.2592  103.4477 H        40        0    0.0000
    247 C         170.5797  190.1909  104.5012 C.3      41        0    0.0000
    248 C         170.0047  190.5180  105.8837 C.3      41        0    0.0000
    249 H         170.7087  189.1067  104.3943 H        41        0    0.0000
    250 H         171.5752  190.6389  104.3922 H        41        0    0.0000
    251 H         169.8741  191.6020  105.9900 H        41        0    0.0000
    252 H         169.0099  190.0685  105.9933 H        41        0    0.0000
    253 C         170.9225  190.0034  107.0458 C.3      42        0    0.0000
    254 C         170.3455  190.3268  108.4283 C.3      42        0    0.0000
    255 H         171.0556  188.9198  106.9378 H        42        0    0.0000
    256 H         171.9164  190.4552  106.9379 H        42        0    0.0000
    257 H         170.2154  191.4106  108.5375 H        42        0    0.0000
    258 H         169.3502  189.8777  108.5350 H        42        0    0.0000
    259 C         171.2610  189.8082  109.5904 C.3      43        0    0.0000
    260 C         170.6852  190.1336  110.9729 C.3      43        0    0.0000
    261 H         171.3897  188.7241  109.4822 H        43        0    0.0000
    262 H         172.2567  190.2559  109.4827 H        43        0    0.0000
    263 H         170.5616  191.2181  111.0832 H        43        0    0.0000
    264 H         169.6872  189.6905  111.0786 H        43        0    0.0000
    265 C         171.5969  189.6082  112.1349 C.3      44        0    0.0000
    266 C         171.0206  189.9329  113.5175 C.3      44        0    0.0000
    267 H         171.7210  188.5238  112.0243 H        44        0    0.0000
    268 H         172.5947  190.0519  112.0297 H        44        0    0.0000
    269 H         170.1444  189.3036  113.7171 H        44        0    0.0000
    270 H         171.7582  189.7021  114.2961 H        44        0    0.0000
    271 C         170.6020  191.4380  113.6482 C.3      45        0    0.0000
    272 C         169.9727  191.7497  115.0105 C.3      45        0    0.0000
    273 H         171.4873  192.0663  113.4902 H        45        0    0.0000
    274 H         169.8964  191.6799  112.8437 H        45        0    0.0000
    275 H         170.5052  192.5806  115.4895 H        45        0    0.0000
    276 H         168.9334  192.0755  114.8791 H        45        0    0.0000
    277 C         169.9965  190.5125  115.9729 C.3      46        0    0.0000
    278 C         169.7470  190.9073  117.4327 C.3      46        0    0.0000
    279 H         169.2369  189.7930  115.6428 H        46        0    0.0000
    280 H         170.9675  190.0105  115.8797 H        46        0    0.0000
    281 H         170.1464  191.9109  117.6244 H        46        0    0.0000
    282 H         168.6690  190.9541  117.6308 H        46        0    0.0000
    283 C         170.4028  189.9015  118.4406 C.3      47        0    0.0000
    284 C         170.1490  190.2935  119.9003 C.3      47        0    0.0000
    285 H         170.0061  188.8972  118.2464 H        47        0    0.0000
    286 H         171.4813  189.8574  118.2449 H        47        0    0.0000
    287 H         169.1007  190.1059  120.1634 H        47        0    0.0000
    288 H         170.7577  189.6714  120.5682 H        47        0    0.0000
    289 C         170.4771  191.8014  120.1761 C.3      48        0    0.0000
    290 C         169.9241  192.2792  121.5233 C.3      48        0    0.0000
    291 H         171.5652  191.9377  120.1466 H        48        0    0.0000
    292 H         170.0614  192.4083  119.3623 H        48        0    0.0000
    293 H         170.6462  192.9455  122.0115 H        48        0    0.0000
    294 H         169.0097  192.8652  121.3681 H        48        0    0.0000
    295 C         169.6025  191.0876  122.4898 C.3      49        0    0.0000
    296 C         169.0051  191.5627  123.8189 C.3      49        0    0.0000
    297 H         168.9072  190.4032  121.9882 H        49        0    0.0000
    298 H         170.5245  190.5219  122.6726 H        49        0    0.0000
    299 H         169.7005  192.2471  124.3206 H        49        0    0.0000
    300 H         168.0831  192.1284  123.6361 H        49        0    0.0000
    301 H         168.7816  190.7341  124.4910 H        49        0    0.0000
    302 H         179.2798  174.4287  121.7450 H         0        0    0.0000
@<TRIPOS>BOND
     1     1     2      1
     2     1     3      1
     3     1     4      1
     4     1   302      H
     5     2     5      1
     6     2     6      1
     7     2     7      1
     8     7     8      1
     9     7     9      1
    10     7    10      1
    11     8    11      1
    12     8    12      1
    13     8    13      1
    14    13    14      1
    15    13    15      1
    16    13    16      1
    17    14    17      1
    18    14    18      1
    19    14    19      1
    20    19    20      1
    21    19    21      1
    22    19    22      1
    23    20    23      1
    24    20    24      1
    25    20    25      1
    26    25    26      1
    27    25    27      1
    28    25    28      1
    29    26    29      1
    30    26    30      1
    31    26    31      1
    32    31    32      1
    33    31    33      1
    34    31    34      1
    35    32    35      1
    36    32    36      1
    37    32    37      1
    38    37    38      1
    39    37    39      1
    40    37    40      1
    41    38    41      1
    42    38    42      1
    43    38    43      1
    44    43    44      1
    45    43    45      1
    46    43    46      1
    47    44    47      1
    48    44    48      1
    49    44    49      1
    50    49    50      1
    51    49    51      1
    52    49    52      1
    53    50    53      1
    54    50    54      1
    55    50    55      1
    56    55    56      1
    57    55    57      1
    58    55    58      1
    59    56    59      1
    60    56    60      1
    61    56    61      1
    62    61    62      1
    63    61    63      1
    64    61    64      1
    65    62    65      1
    66    62    66      1
    67    62    67      1
    68    67    68      1
    69    67    69      1
    70    67    70      1
    71    68    71      1
    72    68    72      1
    73    68    73      1
    74    73    74      1
    75    73    75      1
    76    73    76      1
    77    74    77      1
    78    74    78      1
    79    74    79      1
    80    79    80      1
    81    79    81      1
    82    79    82      1
    83    80    83      1
    84    80    84      1
    85    80    85      1
    86    85    86      1
    87    85    87      1
    88    85    88      1
    89    86    89      1
    90    86    90      1
    91    86    91      1
    92    91    92      1
    93    91    93      1
    94    91    94      1
    95    92    95      1
    96    92    96      1
    97    92    97      1
    98    97    98      1
    99    97    99      1
   100    97   100      1
   101    98   101      1
   102    98   102      1
   103    98   103      1
   104   103   104      1
   105   103   105      1
   106   103   106      1
   107   104   107      1
   108   104   108      1
   109   104   109      1
   110   109   110      1
   111   109   111      1
   112   109   112      1
   113   110   113      1
   114   110   114      1
   115   110   115      1
   116   115   116      1
   117   115   117      1
   118   115   118      1
   119   116   119      1
   120   116   120      1
   121   116   121      1
   122   121   122      1
   123   121   123      1
   124   121   124      1
   125   122   125      1
   126   122   126      1
   127   122   127      1
   128   127   128      1
   129   127   129      1
   130   127   130      1
   131   128   131      1
   132   128   132      1
   133   128   133      1
   134   133   134      1
   135   133   135      1
   136   133   136      1
   137   134   137      1
   138   134   138      1
   139   134   139      1
   140   139   140      1
   141   139   141      1
   142   139   142      1
   143   140   143      1
   144   140   144      1
   145   140   145      1
   146   145   146      1
   147   145   147      1
   148   145   148      1
   149   146   149      1
   150   146   150      1
   151   146   151      1
   152   151   152      1
   153   151   153      1
   154   151   154      1
   155   152   155      1
   156   152   156      1
   157   152   157      1
   158   157   158      1
   159   157   159      1
   160   157   160      1
   161   158   161      1
   162   158   162      1
   163   158   163      1
   164   163   164      1
   165   163   165      1
   166   163   166      1
   167   164   167      1
   168   164   168      1
   169   164   169      1
   170   169   170      1
   171   169   171      1
   172   169   172      1
   173   170   173      1
   174   170   174      1
   175   170   175      1
   176   175   176      1
   177   175   177      1
   178   175   178      1
   179   176   179      1
   180   176   180      1
   181   176   181      1
   182   181   182      1
   183   181   183      1
   184   181   184      1
   185   182   185      1
   186   182   186      1
   187   182   187      1
   188   187   188      1
   189   187   189      1
   190   187   190      1
   191   188   191      1
   192   188   192      1
   193   188   193      1
   194   193   194      1
   195   193   195      1
   196   193   196      1
   197   194   197      1
   198   194   198      1
   199   194   199      1
   200   199   200      1
   201   199   201      1
   202   199   202      1
   203   200   203      1
   204   200   204      1
   205   200   205      1
   206   205   206      1
   207   205   207      1
   208   205   208      1
   209   206   209      1
   210   206   210      1
   211   206   211      1
   212   211   212      1
   213   211   213      1
   214   211   214      1
   215   212   215      1
   216   212   216      1
   217   212   217      1
   218   217   218      1
   219   217   219      1
   220   217   220      1
   221   218   221      1
   222   218   222      1
   223   218   223      1
   224   223   224      1
   225   223   225      1
   226   223   226      1
   227   224   227      1
   228   224   228      1
   229   224   229      1
   230   229   230      1
   231   229   231      1
   232   229   232      1
   233   230   233      1
   234   230   234      1
   235   230   235      1
   236   235   236      1
   237   235   237      1
   238   235   238      1
   239   236   239      1
   240   236   240      1
   241   236   241      1
   242   241   242      1
   243   241   243      1
   244   241   244      1
   245   242   245      1
   246   242   246      1
   247   242   247      1
   248   247   248      1
   249   247   249      1
   250   247   250      1
   251   248   251      1
   252   248   252      1
   253   248   253      1
   254   253   254      1
   255   253   255      1
   256   253   256      1
   257   254   257      1
   258   254   258      1
   259   254   259      1
   260   259   260      1
   261   259   261      1
   262   259   262      1
   263   260   263      1
   264   260   264      1
   265   260   265      1
   266   265   266      1
   267   265   267      1
   268   265   268      1
   269   266   269      1
   270   266   270      1
   271   266   271      1
   272   271   272      1
   273   271   273      1
   274   271   274      1
   275   272   275      1
   276   272   276      1
   277   272   277      1
   278   277   278      1
   279   277   279      1
   280   277   280      1
   281   278   281      1
   282   278   282      1
   283   278   283      1
   284   283   284      1
   285   283   285      1
   286   283   286      1
   287   284   287      1
   288   284   288      1
   289   284   289      1
   290   289   290      1
   291   289   291      1
   292   289   292      1
   293   290   293      1
   294   290   294      1
   295   290   295      1
   296   295   296      1
   297   295   297      1
   298   295   298      1
   299   296   299      1
   300   296   300      1
   301   296   301      H
