###
### Created by PolyChef-cpp17 on Thu Feb 27 19:40:28 2025
###

@<TRIPOS>MOLECULE
NO_INFO
308 307 1 0 0
SMALL
USER_CHARGES


@<TRIPOS>ATOM
      1 C          69.2798   18.5487  120.6551 C.3       0        0    0.0000
      2 C          68.4513   17.3975  120.0742 C.3       0        0    0.0000
      3 H          68.8875   19.5102  120.3014 H         0        0    0.0000
      4 H          70.3162   18.4821  120.3014 H         0        0    0.0000
      5 H          68.4074   16.5672  120.7899 H         0        0    0.0000
      6 H          67.4175   17.7247  119.9075 H         0        0    0.0000
      7 C          69.0379   16.8673  118.7206 C.3       1        0    0.0000
      8 C          69.6342   17.9913  117.8661 C.3       1        0    0.0000
      9 H          69.8045   16.1134  118.9385 H         1        0    0.0000
     10 H          68.2414   16.3556  118.1663 H         1        0    0.0000
     11 H          68.9420   18.8415  117.8267 H         1        0    0.0000
     12 H          70.5607   18.3603  118.3233 H         1        0    0.0000
     13 C          69.9443   17.5240  116.4022 C.3       2        0    0.0000
     14 C          69.8849   18.6807  115.3984 C.3       2        0    0.0000
     15 H          70.9380   17.0594  116.3824 H         2        0    0.0000
     16 H          69.2262   16.7440  116.1204 H         2        0    0.0000
     17 H          68.9645   19.2593  115.5452 H         2        0    0.0000
     18 H          70.7210   19.3701  115.5689 H         2        0    0.0000
     19 C          69.9365   18.1816  113.9132 C.3       3        0    0.0000
     20 C          69.8276   19.3343  112.9090 C.3       3        0    0.0000
     21 H          70.8739   17.6336  113.7567 H         3        0    0.0000
     22 H          69.1218   17.4646  113.7526 H         3        0    0.0000
     23 H          68.8949   19.8883  113.0719 H         3        0    0.0000
     24 H          70.6479   20.0462  113.0632 H         3        0    0.0000
     25 C          69.8653   18.8339  111.4238 C.3       4        0    0.0000
     26 C          69.8715   19.9925  110.4205 C.3       4        0    0.0000
     27 H          70.7566   18.2099  111.2834 H         4        0    0.0000
     28 H          68.9969   18.1873  111.2464 H         4        0    0.0000
     29 H          68.9717   20.6067  110.5496 H         4        0    0.0000
     30 H          70.7304   20.6485  110.6088 H         4        0    0.0000
     31 C          69.9333   19.4926  108.9360 C.3       5        0    0.0000
     32 C          68.8734   20.1610  108.0534 C.3       5        0    0.0000
     33 H          70.9355   19.6924  108.5370 H         5        0    0.0000
     34 H          69.8007   18.4036  108.9238 H         5        0    0.0000
     35 H          67.9152   20.2071  108.5858 H         5        0    0.0000
     36 H          69.1633   21.1965  107.8363 H         5        0    0.0000
     37 C          68.6627   19.4006  106.6989 C.3       6        0    0.0000
     38 C          69.0043   20.2714  105.4847 C.3       6        0    0.0000
     39 H          69.2845   18.4967  106.7003 H         6        0    0.0000
     40 H          67.6198   19.0654  106.6400 H         6        0    0.0000
     41 H          68.1172   20.8297  105.1608 H         6        0    0.0000
     42 H          69.7629   21.0156  105.7570 H         6        0    0.0000
     43 C          69.5372   19.4250  104.2776 C.3       7        0    0.0000
     44 C          68.9483   19.8861  102.9399 C.3       7        0    0.0000
     45 H          70.6316   19.4965  104.2515 H         7        0    0.0000
     46 H          69.2946   18.3693  104.4515 H         7        0    0.0000
     47 H          67.8608   20.0011  103.0273 H         7        0    0.0000
     48 H          69.3488   20.8718  102.6724 H         7        0    0.0000
     49 C          69.2583   18.8821  101.7766 C.3       8        0    0.0000
     50 C          69.0766   19.5200  100.3949 C.3       8        0    0.0000
     51 H          70.2864   18.5163  101.8898 H         8        0    0.0000
     52 H          68.6007   18.0099  101.8777 H         8        0    0.0000
     53 H          68.0291   19.8119  100.2502 H         8        0    0.0000
     54 H          69.6724   20.4384  100.3233 H         8        0    0.0000
     55 C          69.4967   18.5534   99.2344 C.3       9        0    0.0000
     56 C          69.2474   19.1640   97.8509 C.3       9        0    0.0000
     57 H          70.5587   18.3034   99.3494 H         9        0    0.0000
     58 H          68.9391   17.6142   99.3372 H         9        0    0.0000
     59 H          68.1880   19.4271   97.7413 H         9        0    0.0000
     60 H          69.8162   20.0958   97.7429 H         9        0    0.0000
     61 C          69.6487   18.1896   96.6904 C.3      10        0    0.0000
     62 C          69.3916   18.7969   95.3069 C.3      10        0    0.0000
     63 H          70.7096   17.9312   96.7965 H        10        0    0.0000
     64 H          69.0843   17.2554   96.8019 H        10        0    0.0000
     65 H          68.3305   19.0543   95.2004 H        10        0    0.0000
     66 H          69.9552   19.7316   95.1958 H        10        0    0.0000
     67 C          69.7942   17.8231   94.1463 C.3      11        0    0.0000
     68 C          69.5399   18.4316   92.7628 C.3      11        0    0.0000
     69 H          70.8548   17.5639   94.2541 H        11        0    0.0000
     70 H          69.2290   16.8892   94.2562 H        11        0    0.0000
     71 H          68.4797   18.6922   92.6556 H        11        0    0.0000
     72 H          70.1064   19.3646   92.6524 H        11        0    0.0000
     73 C          69.9406   17.4569   91.6023 C.3      12        0    0.0000
     74 C          69.6932   18.0683   90.2188 C.3      12        0    0.0000
     75 H          70.9994   17.1920   91.7127 H        12        0    0.0000
     76 H          69.3701   16.5259   91.7096 H        12        0    0.0000
     77 H          68.6348   18.3353   90.1094 H        12        0    0.0000
     78 H          70.2654   18.9980   90.1106 H        12        0    0.0000
     79 C          70.0907   17.0923   89.0583 C.3      13        0    0.0000
     80 C          69.8446   17.7042   87.6748 C.3      13        0    0.0000
     81 H          71.1488   16.8244   89.1683 H        13        0    0.0000
     82 H          69.5177   16.1630   89.1659 H        13        0    0.0000
     83 H          68.7850   17.9648   87.5618 H        13        0    0.0000
     84 H          70.4115   18.6376   87.5701 H        13        0    0.0000
     85 C          70.2525   16.7324   86.5143 C.3      14        0    0.0000
     86 C          70.0140   17.3475   85.1308 C.3      14        0    0.0000
     87 H          71.3106   16.4671   86.6307 H        14        0    0.0000
     88 H          69.6812   15.8013   86.6155 H        14        0    0.0000
     89 H          68.9411   17.5126   84.9725 H        14        0    0.0000
     90 H          70.4967   18.3306   85.0679 H        14        0    0.0000
     91 C          70.5617   16.4408   83.9752 C.3      15        0    0.0000
     92 C          70.3528   17.0711   82.5938 C.3      15        0    0.0000
     93 H          71.6293   16.2558   84.1467 H        15        0    0.0000
     94 H          70.0612   15.4657   84.0233 H        15        0    0.0000
     95 H          69.3990   17.6124   82.5677 H        15        0    0.0000
     96 H          71.1395   17.8092   82.3942 H        15        0    0.0000
     97 C          70.3592   16.0030   81.4464 C.3      16        0    0.0000
     98 C          70.0754   16.6233   80.0738 C.3      16        0    0.0000
     99 H          71.3338   15.4995   81.4373 H        16        0    0.0000
    100 H          69.6098   15.2348   81.6742 H        16        0    0.0000
    101 H          70.3794   17.6774   80.0673 H        16        0    0.0000
    102 H          70.6708   16.1189   79.3027 H        16        0    0.0000
    103 C          68.5602   16.5320   79.6824 C.3      17        0    0.0000
    104 C          68.3026   16.9968   78.2448 C.3      17        0    0.0000
    105 H          68.2243   15.4952   79.8084 H        17        0    0.0000
    106 H          67.9763   17.1399   80.3846 H        17        0    0.0000
    107 H          67.2455   16.8556   77.9875 H        17        0    0.0000
    108 H          68.5082   18.0706   78.1541 H        17        0    0.0000
    109 C          69.1836   16.2239   77.2037 C.3      18        0    0.0000
    110 C          68.8699   16.6325   75.7602 C.3      18        0    0.0000
    111 H          70.2412   16.4121   77.4265 H        18        0    0.0000
    112 H          69.0211   15.1467   77.3335 H        18        0    0.0000
    113 H          69.2056   17.6611   75.5791 H        18        0    0.0000
    114 H          69.4215   15.9931   75.0599 H        18        0    0.0000
    115 C          67.3395   16.5358   75.4347 C.3      19        0    0.0000
    116 C          67.0097   17.0592   74.0324 C.3      19        0    0.0000
    117 H          67.0232   15.4896   75.5297 H        19        0    0.0000
    118 H          66.7809   17.1035   76.1891 H        19        0    0.0000
    119 H          67.0003   18.1562   74.0329 H        19        0    0.0000
    120 H          67.7880   16.7512   73.3232 H        19        0    0.0000
    121 C          65.6226   16.5423   73.5163 C.3      20        0    0.0000
    122 C          65.2715   17.1032   72.1339 C.3      20        0    0.0000
    123 H          65.6439   15.4460   73.4831 H        20        0    0.0000
    124 H          64.8490   16.8206   74.2427 H        20        0    0.0000
    125 H          65.5158   18.1718   72.0883 H        20        0    0.0000
    126 H          65.8755   16.6089   71.3629 H        20        0    0.0000
    127 C          63.7548   16.9163   71.7846 C.3      21        0    0.0000
    128 C          63.3866   17.5488   70.4380 C.3      21        0    0.0000
    129 H          63.5244   15.8438   71.7720 H        21        0    0.0000
    130 H          63.1502   17.3590   72.5859 H        21        0    0.0000
    131 H          63.7061   18.5980   70.4152 H        21        0    0.0000
    132 H          63.9192   17.0397   69.6251 H        21        0    0.0000
    133 C          61.8467   17.4832   70.1520 C.3      22        0    0.0000
    134 C          61.3554   18.6851   69.3376 C.3      22        0    0.0000
    135 H          61.6256   16.5510   69.6175 H        22        0    0.0000
    136 H          61.3113   17.4327   71.1083 H        22        0    0.0000
    137 H          61.7646   19.6140   69.7538 H        22        0    0.0000
    138 H          61.7205   18.6147   68.3055 H        22        0    0.0000
    139 C          59.7913   18.7878   69.3145 C.3      23        0    0.0000
    140 C          59.3009   20.2278   69.5011 C.3      23        0    0.0000
    141 H          59.4247   18.3860   68.3618 H        23        0    0.0000
    142 H          59.3831   18.1459   70.1050 H        23        0    0.0000
    143 H          60.0177   20.7935   70.1091 H        23        0    0.0000
    144 H          59.2430   20.7343   68.5297 H        23        0    0.0000
    145 C          57.8937   20.2917   70.1889 C.3      24        0    0.0000
    146 C          56.7539   20.4037   69.1704 C.3      24        0    0.0000
    147 H          57.7604   19.3942   70.8055 H        24        0    0.0000
    148 H          57.8729   21.1495   70.8726 H        24        0    0.0000
    149 H          56.4567   21.4531   69.0524 H        24        0    0.0000
    150 H          57.0942   20.0600   68.1858 H        24        0    0.0000
    151 C          55.4969   19.5668   69.5911 C.3      25        0    0.0000
    152 C          54.8828   18.8073   68.4100 C.3      25        0    0.0000
    153 H          55.7888   18.8627   70.3802 H        25        0    0.0000
    154 H          54.7532   20.2426   70.0313 H        25        0    0.0000
    155 H          54.1498   19.4410   67.8955 H        25        0    0.0000
    156 H          55.6597   18.5636   67.6747 H        25        0    0.0000
    157 C          54.1777   17.4810   68.8584 C.3      26        0    0.0000
    158 C          52.6764   17.6740   69.0992 C.3      26        0    0.0000
    159 H          54.3400   16.7165   68.0885 H        26        0    0.0000
    160 H          54.6613   17.1151   69.7726 H        26        0    0.0000
    161 H          52.3246   18.5734   68.5787 H        26        0    0.0000
    162 H          52.1166   16.8285   68.6806 H        26        0    0.0000
    163 C          52.3310   17.8042   70.6227 C.3      27        0    0.0000
    164 C          51.0527   17.0452   70.9954 C.3      27        0    0.0000
    165 H          53.1771   17.4274   71.2106 H        27        0    0.0000
    166 H          52.2233   18.8673   70.8713 H        27        0    0.0000
    167 H          50.1704   17.6258   70.6986 H        27        0    0.0000
    168 H          51.0048   16.0967   70.4464 H        27        0    0.0000
    169 C          50.9665   16.7449   72.5316 C.3      28        0    0.0000
    170 C          49.8019   17.4810   73.2030 C.3      28        0    0.0000
    171 H          50.8599   15.6624   72.6748 H        28        0    0.0000
    172 H          51.9148   17.0330   73.0019 H        28        0    0.0000
    173 H          49.6395   18.4509   72.7166 H        28        0    0.0000
    174 H          48.8743   16.9081   73.0808 H        28        0    0.0000
    175 C          50.0516   17.7182   74.7323 C.3      29        0    0.0000
    176 C          48.8584   17.2830   75.5900 C.3      29        0    0.0000
    177 H          50.9518   17.1680   75.0331 H        29        0    0.0000
    178 H          50.2637   18.7822   74.8951 H        29        0    0.0000
    179 H          48.0364   18.0016   75.4833 H        29        0    0.0000
    180 H          48.4778   16.3149   75.2414 H        29        0    0.0000
    181 C          49.2305   17.1626   77.1081 C.3      30        0    0.0000
    182 C          48.0142   17.3528   78.0211 C.3      30        0    0.0000
    183 H          49.6830   16.1789   77.2844 H        30        0    0.0000
    184 H          49.9985   17.9096   77.3442 H        30        0    0.0000
    185 H          47.4923   18.2828   77.7636 H        30        0    0.0000
    186 H          47.2975   16.5365   77.8678 H        30        0    0.0000
    187 C          48.4107   17.3990   79.5371 C.3      31        0    0.0000
    188 C          47.2144   17.1372   80.4586 C.3      31        0    0.0000
    189 H          49.1963   16.6554   79.7199 H        31        0    0.0000
    190 H          48.8483   18.3804   79.7583 H        31        0    0.0000
    191 H          46.4660   17.9302   80.3381 H        31        0    0.0000
    192 H          46.7239   16.1962   80.1801 H        31        0    0.0000
    193 C          47.6322   17.0617   81.9677 C.3      32        0    0.0000
    194 C          46.7889   17.9880   82.8508 C.3      32        0    0.0000
    195 H          47.5348   16.0241   82.3101 H        32        0    0.0000
    196 H          48.6940   17.3236   82.0541 H        32        0    0.0000
    197 H          46.5329   18.9019   82.3006 H        32        0    0.0000
    198 H          45.8410   17.5003   83.1100 H        32        0    0.0000
    199 C          47.5308   18.3855   84.1733 C.3      33        0    0.0000
    200 C          46.9449   17.6813   85.4021 C.3      33        0    0.0000
    201 H          48.5947   18.1385   84.0699 H        33        0    0.0000
    202 H          47.4708   19.4737   84.2991 H        33        0    0.0000
    203 H          46.1792   18.3136   85.8685 H        33        0    0.0000
    204 H          46.4455   16.7522   85.1008 H        33        0    0.0000
    205 C          48.0402   17.3425   86.4712 C.3      34        0    0.0000
    206 C          47.5183   17.4904   87.9046 C.3      34        0    0.0000
    207 H          48.3931   16.3174   86.3032 H        34        0    0.0000
    208 H          48.9028   18.0021   86.3150 H        34        0    0.0000
    209 H          46.9883   18.4445   88.0154 H        34        0    0.0000
    210 H          46.7910   16.6988   88.1236 H        34        0    0.0000
    211 C          48.6702   17.4259   88.9660 C.3      35        0    0.0000
    212 C          48.1395   17.4766   90.4029 C.3      35        0    0.0000
    213 H          49.2442   16.5043   88.8092 H        35        0    0.0000
    214 H          49.3601   18.2606   88.7901 H        35        0    0.0000
    215 H          47.5832   18.4080   90.5658 H        35        0    0.0000
    216 H          47.4335   16.6542   90.5724 H        35        0    0.0000
    217 C          49.2891   17.3825   91.4645 C.3      36        0    0.0000
    218 C          48.7575   17.4221   92.9014 C.3      36        0    0.0000
    219 H          49.8505   16.4550   91.2965 H        36        0    0.0000
    220 H          49.9908   18.2096   91.3001 H        36        0    0.0000
    221 H          48.1950   18.3489   93.0690 H        36        0    0.0000
    222 H          48.0569   16.5941   93.0663 H        36        0    0.0000
    223 C          49.9073   17.3299   93.9630 C.3      37        0    0.0000
    224 C          49.3756   17.3679   95.4000 C.3      37        0    0.0000
    225 H          50.4706   16.4037   93.7947 H        37        0    0.0000
    226 H          50.6073   18.1586   93.7989 H        37        0    0.0000
    227 H          48.8075   18.2916   95.5666 H        37        0    0.0000
    228 H          48.6799   16.5360   95.5658 H        37        0    0.0000
    229 C          50.5260   17.2838   96.4616 C.3      38        0    0.0000
    230 C          49.9942   17.3204   97.8985 C.3      38        0    0.0000
    231 H          51.0947   16.3607   96.2943 H        38        0    0.0000
    232 H          51.2211   18.1164   96.2964 H        38        0    0.0000
    233 H          49.4161   18.2383   98.0624 H        38        0    0.0000
    234 H          49.3077   16.4814   98.0670 H        38        0    0.0000
    235 C          51.1456   17.2522   98.9601 C.3      39        0    0.0000
    236 C          50.6136   17.2845  100.3971 C.3      39        0    0.0000
    237 H          51.7257   16.3359   98.7942 H        39        0    0.0000
    238 H          51.8304   18.0930   98.7935 H        39        0    0.0000
    239 H          50.0506   18.2103  100.5690 H        39        0    0.0000
    240 H          49.9132   16.4556  100.5576 H        39        0    0.0000
    241 C          51.7630   17.1876  101.4585 C.3      40        0    0.0000
    242 C          51.2313   17.2238  102.8955 C.3      40        0    0.0000
    243 H          52.3242   16.2604  101.2884 H        40        0    0.0000
    244 H          52.4650   18.0149  101.2962 H        40        0    0.0000
    245 H          50.7227   16.2810  103.1323 H        40        0    0.0000
    246 H          52.0646   17.3185  103.6027 H        40        0    0.0000
    247 C          50.2326   18.4093  103.1297 C.3      41        0    0.0000
    248 C          49.5918   18.3626  104.5212 C.3      41        0    0.0000
    249 H          50.7699   19.3562  102.9945 H        41        0    0.0000
    250 H          49.4554   18.3749  102.3563 H        41        0    0.0000
    251 H          49.6545   19.3490  104.9974 H        41        0    0.0000
    252 H          48.5250   18.1211  104.4361 H        41        0    0.0000
    253 C          50.2762   17.3061  105.4554 C.3      42        0    0.0000
    254 C          49.8681   17.4773  106.9227 C.3      42        0    0.0000
    255 H          50.0107   16.3006  105.1060 H        42        0    0.0000
    256 H          51.3648   17.3974  105.3545 H        42        0    0.0000
    257 H          49.7638   18.5428  107.1623 H        42        0    0.0000
    258 H          48.8871   17.0179  107.0964 H        42        0    0.0000
    259 C          50.9071   16.8375  107.9069 C.3      43        0    0.0000
    260 C          50.5101   17.0277  109.3749 C.3      43        0    0.0000
    261 H          50.9995   15.7686  107.6777 H        43        0    0.0000
    262 H          51.8913   17.2854  107.7223 H        43        0    0.0000
    263 H          49.6400   16.4035  109.6133 H        43        0    0.0000
    264 H          51.3247   16.6964  110.0309 H        43        0    0.0000
    265 C          50.1676   18.5205  109.7091 C.3      44        0    0.0000
    266 C          49.8367   18.7227  111.1919 C.3      44        0    0.0000
    267 H          51.0191   19.1509  109.4244 H        44        0    0.0000
    268 H          49.3202   18.8365  109.0881 H        44        0    0.0000
    269 H          50.5775   19.3858  111.6556 H        44        0    0.0000
    270 H          48.8627   19.2168  111.2960 H        44        0    0.0000
    271 C          49.8041   17.3698  111.9831 C.3      45        0    0.0000
    272 C          49.7371   17.5850  113.4991 C.3      45        0    0.0000
    273 H          48.9388   16.7847  111.6477 H        45        0    0.0000
    274 H          50.6973   16.7875  111.7249 H        45        0    0.0000
    275 H          50.1567   18.5648  113.7588 H        45        0    0.0000
    276 H          48.6919   17.5915  113.8323 H        45        0    0.0000
    277 C          50.5131   16.4769  114.2913 C.3      46        0    0.0000
    278 C          50.4270   16.6792  115.8081 C.3      46        0    0.0000
    279 H          50.1048   15.4958  114.0188 H        46        0    0.0000
    280 H          51.5621   16.4817  113.9701 H        46        0    0.0000
    281 H          50.8561   15.8137  116.3280 H        46        0    0.0000
    282 H          51.0214   17.5519  116.1056 H        46        0    0.0000
    283 C          48.9516   16.8820  116.2975 C.3      47        0    0.0000
    284 C          48.8787   17.2639  117.7800 C.3      47        0    0.0000
    285 H          48.4797   17.6602  115.6849 H        47        0    0.0000
    286 H          48.3895   15.9568  116.1193 H        47        0    0.0000
    287 H          48.5713   18.3119  117.8838 H        47        0    0.0000
    288 H          48.1158   16.6601  118.2870 H        47        0    0.0000
    289 C          50.2500   17.0647  118.5129 C.3      48        0    0.0000
    290 C          50.1765   17.4442  119.9960 C.3      48        0    0.0000
    291 H          50.5584   16.0172  118.4075 H        48        0    0.0000
    292 H          51.0125   17.6700  118.0071 H        48        0    0.0000
    293 H          51.0974   17.1393  120.5085 H        48        0    0.0000
    294 H          50.1027   18.5336  120.1024 H        48        0    0.0000
    295 C          48.9532   16.7820  120.7188 C.3      49        0    0.0000
    296 C          48.7460   17.3338  122.1336 C.3      49        0    0.0000
    297 H          48.0528   16.9486  120.1145 H        49        0    0.0000
    298 H          49.1102   15.6969  120.7575 H        49        0    0.0000
    299 H          47.8657   17.9880  122.1570 H        49        0    0.0000
    300 H          48.5464   16.5119  122.8324 H        49        0    0.0000
    301 C          49.9891   18.1407  122.6445 C.3      50        0    0.0000
    302 C          49.7406   18.7858  124.0124 C.3      50        0    0.0000
    303 H          50.8516   17.4649  122.6984 H        50        0    0.0000
    304 H          50.2386   18.9116  121.9048 H        50        0    0.0000
    305 H          48.8781   19.4616  123.9585 H        50        0    0.0000
    306 H          49.4911   18.0150  124.7520 H        50        0    0.0000
    307 H          50.6050   19.3469  124.3676 H        50        0    0.0000
    308 H          69.2798   18.5487  121.7450 H         0        0    0.0000
@<TRIPOS>BOND
     1     1     2      1
     2     1     3      1
     3     1     4      1
     4     1   308      H
     5     2     5      1
     6     2     6      1
     7     2     7      1
     8     7     8      1
     9     7     9      1
    10     7    10      1
    11     8    11      1
    12     8    12      1
    13     8    13      1
    14    13    14      1
    15    13    15      1
    16    13    16      1
    17    14    17      1
    18    14    18      1
    19    14    19      1
    20    19    20      1
    21    19    21      1
    22    19    22      1
    23    20    23      1
    24    20    24      1
    25    20    25      1
    26    25    26      1
    27    25    27      1
    28    25    28      1
    29    26    29      1
    30    26    30      1
    31    26    31      1
    32    31    32      1
    33    31    33      1
    34    31    34      1
    35    32    35      1
    36    32    36      1
    37    32    37      1
    38    37    38      1
    39    37    39      1
    40    37    40      1
    41    38    41      1
    42    38    42      1
    43    38    43      1
    44    43    44      1
    45    43    45      1
    46    43    46      1
    47    44    47      1
    48    44    48      1
    49    44    49      1
    50    49    50      1
    51    49    51      1
    52    49    52      1
    53    50    53      1
    54    50    54      1
    55    50    55      1
    56    55    56      1
    57    55    57      1
    58    55    58      1
    59    56    59      1
    60    56    60      1
    61    56    61      1
    62    61    62      1
    63    61    63      1
    64    61    64      1
    65    62    65      1
    66    62    66      1
    67    62    67      1
    68    67    68      1
    69    67    69      1
    70    67    70      1
    71    68    71      1
    72    68    72      1
    73    68    73      1
    74    73    74      1
    75    73    75      1
    76    73    76      1
    77    74    77      1
    78    74    78      1
    79    74    79      1
    80    79    80      1
    81    79    81      1
    82    79    82      1
    83    80    83      1
    84    80    84      1
    85    80    85      1
    86    85    86      1
    87    85    87      1
    88    85    88      1
    89    86    89      1
    90    86    90      1
    91    86    91      1
    92    91    92      1
    93    91    93      1
    94    91    94      1
    95    92    95      1
    96    92    96      1
    97    92    97      1
    98    97    98      1
    99    97    99      1
   100    97   100      1
   101    98   101      1
   102    98   102      1
   103    98   103      1
   104   103   104      1
   105   103   105      1
   106   103   106      1
   107   104   107      1
   108   104   108      1
   109   104   109      1
   110   109   110      1
   111   109   111      1
   112   109   112      1
   113   110   113      1
   114   110   114      1
   115   110   115      1
   116   115   116      1
   117   115   117      1
   118   115   118      1
   119   116   119      1
   120   116   120      1
   121   116   121      1
   122   121   122      1
   123   121   123      1
   124   121   124      1
   125   122   125      1
   126   122   126      1
   127   122   127      1
   128   127   128      1
   129   127   129      1
   130   127   130      1
   131   128   131      1
   132   128   132      1
   133   128   133      1
   134   133   134      1
   135   133   135      1
   136   133   136      1
   137   134   137      1
   138   134   138      1
   139   134   139      1
   140   139   140      1
   141   139   141      1
   142   139   142      1
   143   140   143      1
   144   140   144      1
   145   140   145      1
   146   145   146      1
   147   145   147      1
   148   145   148      1
   149   146   149      1
   150   146   150      1
   151   146   151      1
   152   151   152      1
   153   151   153      1
   154   151   154      1
   155   152   155      1
   156   152   156      1
   157   152   157      1
   158   157   158      1
   159   157   159      1
   160   157   160      1
   161   158   161      1
   162   158   162      1
   163   158   163      1
   164   163   164      1
   165   163   165      1
   166   163   166      1
   167   164   167      1
   168   164   168      1
   169   164   169      1
   170   169   170      1
   171   169   171      1
   172   169   172      1
   173   170   173      1
   174   170   174      1
   175   170   175      1
   176   175   176      1
   177   175   177      1
   178   175   178      1
   179   176   179      1
   180   176   180      1
   181   176   181      1
   182   181   182      1
   183   181   183      1
   184   181   184      1
   185   182   185      1
   186   182   186      1
   187   182   187      1
   188   187   188      1
   189   187   189      1
   190   187   190      1
   191   188   191      1
   192   188   192      1
   193   188   193      1
   194   193   194      1
   195   193   195      1
   196   193   196      1
   197   194   197      1
   198   194   198      1
   199   194   199      1
   200   199   200      1
   201   199   201      1
   202   199   202      1
   203   200   203      1
   204   200   204      1
   205   200   205      1
   206   205   206      1
   207   205   207      1
   208   205   208      1
   209   206   209      1
   210   206   210      1
   211   206   211      1
   212   211   212      1
   213   211   213      1
   214   211   214      1
   215   212   215      1
   216   212   216      1
   217   212   217      1
   218   217   218      1
   219   217   219      1
   220   217   220      1
   221   218   221      1
   222   218   222      1
   223   218   223      1
   224   223   224      1
   225   223   225      1
   226   223   226      1
   227   224   227      1
   228   224   228      1
   229   224   229      1
   230   229   230      1
   231   229   231      1
   232   229   232      1
   233   230   233      1
   234   230   234      1
   235   230   235      1
   236   235   236      1
   237   235   237      1
   238   235   238      1
   239   236   239      1
   240   236   240      1
   241   236   241      1
   242   241   242      1
   243   241   243      1
   244   241   244      1
   245   242   245      1
   246   242   246      1
   247   242   247      1
   248   247   248      1
   249   247   249      1
   250   247   250      1
   251   248   251      1
   252   248   252      1
   253   248   253      1
   254   253   254      1
   255   253   255      1
   256   253   256      1
   257   254   257      1
   258   254   258      1
   259   254   259      1
   260   259   260      1
   261   259   261      1
   262   259   262      1
   263   260   263      1
   264   260   264      1
   265   260   265      1
   266   265   266      1
   267   265   267      1
   268   265   268      1
   269   266   269      1
   270   266   270      1
   271   266   271      1
   272   271   272      1
   273   271   273      1
   274   271   274      1
   275   272   275      1
   276   272   276      1
   277   272   277      1
   278   277   278      1
   279   277   279      1
   280   277   280      1
   281   278   281      1
   282   278   282      1
   283   278   283      1
   284   283   284      1
   285   283   285      1
   286   283   286      1
   287   284   287      1
   288   284   288      1
   289   284   289      1
   290   289   290      1
   291   289   291      1
   292   289   292      1
   293   290   293      1
   294   290   294      1
   295   290   295      1
   296   295   296      1
   297   295   297      1
   298   295   298      1
   299   296   299      1
   300   296   300      1
   301   296   301      1
   302   301   302      1
   303   301   303      1
   304   301   304      1
   305   302   305      1
   306   302   306      1
   307   302   307      H
