###
### Created by PolyChef-cpp17 on Thu Feb 27 19:40:30 2025
###

@<TRIPOS>MOLECULE
NO_INFO
146 145 1 0 0
SMALL
USER_CHARGES


@<TRIPOS>ATOM
      1 C         119.2798   35.8687  -39.3449 C.3       0        0    0.0000
      2 C         117.8706   35.7082  -38.7641 C.3       0        0    0.0000
      3 H         119.9271   35.0566  -38.9913 H         0        0    0.0000
      4 H         119.7280   36.8055  -38.9913 H         0        0    0.0000
      5 H         117.3720   36.6840  -38.7116 H         0        0    0.0000
      6 H         117.2612   35.0782  -39.4239 H         0        0    0.0000
      7 C         117.8874   35.0716  -37.3316 C.3       1        0    0.0000
      8 C         119.1654   35.4148  -36.5584 C.3       1        0    0.0000
      9 H         117.0073   35.4224  -36.7784 H         1        0    0.0000
     10 H         117.7862   33.9834  -37.4271 H         1        0    0.0000
     11 H         120.0457   35.2346  -37.1878 H         1        0    0.0000
     12 H         119.1747   36.4814  -36.3017 H         1        0    0.0000
     13 C         119.3060   34.5767  -35.2411 C.3       2        0    0.0000
     14 C         120.2090   35.2625  -34.2099 C.3       2        0    0.0000
     15 H         118.3072   34.4139  -34.8173 H         2        0    0.0000
     16 H         119.7066   33.5869  -35.4928 H         2        0    0.0000
     17 H         121.2623   35.1359  -34.4891 H         2        0    0.0000
     18 H         120.0138   36.3420  -34.1978 H         2        0    0.0000
     19 C         119.9977   34.6946  -32.7642 C.3       3        0    0.0000
     20 C         120.6301   35.5877  -31.6911 C.3       3        0    0.0000
     21 H         118.9214   34.5892  -32.5795 H         3        0    0.0000
     22 H         120.4261   33.6858  -32.7144 H         3        0    0.0000
     23 H         121.7191   35.6167  -31.8198 H         3        0    0.0000
     24 H         120.2722   36.6189  -31.8012 H         3        0    0.0000
     25 C         120.3058   35.0927  -30.2395 C.3       4        0    0.0000
     26 C         120.9168   36.0003  -29.1662 C.3       4        0    0.0000
     27 H         119.2166   35.0458  -30.1169 H         4        0    0.0000
     28 H         120.6803   34.0680  -30.1234 H         4        0    0.0000
     29 H         122.0067   36.0417  -29.2846 H         4        0    0.0000
     30 H         120.5476   37.0263  -29.2865 H         4        0    0.0000
     31 C         120.5845   35.5107  -27.7145 C.3       5        0    0.0000
     32 C         121.2053   36.4117  -26.6413 C.3       5        0    0.0000
     33 H         119.4947   35.4774  -27.5934 H         5        0    0.0000
     34 H         120.9462   34.4816  -27.5970 H         5        0    0.0000
     35 H         122.2950   36.4460  -26.7632 H         5        0    0.0000
     36 H         120.8427   37.4405  -26.7581 H         5        0    0.0000
     37 C         120.8745   35.9210  -25.1896 C.3       6        0    0.0000
     38 C         121.4725   36.8373  -24.1164 C.3       6        0    0.0000
     39 H         119.7848   35.8677  -25.0741 H         6        0    0.0000
     40 H         121.2547   34.8994  -25.0665 H         6        0    0.0000
     41 H         122.5625   36.8882  -24.2300 H         6        0    0.0000
     42 H         121.0947   37.8596  -24.2415 H         6        0    0.0000
     43 C         121.1381   36.3490  -22.6648 C.3       7        0    0.0000
     44 C         122.2723   36.6440  -21.6770 C.3       7        0    0.0000
     45 H         120.2133   36.8364  -22.3320 H         7        0    0.0000
     46 H         120.9340   35.2715  -22.6924 H         7        0    0.0000
     47 H         123.2250   36.2755  -22.0772 H         7        0    0.0000
     48 H         122.3840   37.7273  -21.5451 H         7        0    0.0000
     49 C         122.0252   35.9870  -20.2753 C.3       8        0    0.0000
     50 C         122.1043   37.0068  -19.1338 C.3       8        0    0.0000
     51 H         121.0405   35.5035  -20.2800 H         8        0    0.0000
     52 H         122.7657   35.1923  -20.1217 H         8        0    0.0000
     53 H         123.1508   37.1714  -18.8484 H         8        0    0.0000
     54 H         121.7125   37.9757  -19.4672 H         8        0    0.0000
     55 C         121.3021   36.5456  -17.8685 C.3       9        0    0.0000
     56 C         122.1588   36.5671  -16.5978 C.3       9        0    0.0000
     57 H         120.4298   37.1994  -17.7451 H         9        0    0.0000
     58 H         120.9153   35.5341  -18.0443 H         9        0    0.0000
     59 H         123.1510   36.1479  -16.8060 H         9        0    0.0000
     60 H         122.3168   37.6015  -16.2681 H         9        0    0.0000
     61 C         121.5040   35.7577  -15.4259 C.3      10        0    0.0000
     62 C         121.8707   36.3268  -14.0509 C.3      10        0    0.0000
     63 H         120.4148   35.7638  -15.5573 H        10        0    0.0000
     64 H         121.8240   34.7107  -15.4972 H        10        0    0.0000
     65 H         122.9431   36.1933  -13.8624 H        10        0    0.0000
     66 H         121.6787   37.4066  -14.0274 H        10        0    0.0000
     67 C         121.0652   35.6450  -12.8917 C.3      11        0    0.0000
     68 C         121.5500   36.0900  -11.5075 C.3      11        0    0.0000
     69 H         120.0012   35.8838  -13.0123 H        11        0    0.0000
     70 H         121.1567   34.5562  -12.9902 H        11        0    0.0000
     71 H         122.6224   35.8848  -11.4007 H        11        0    0.0000
     72 H         121.4240   37.1740  -11.3954 H        11        0    0.0000
     73 C         120.7797   35.3692  -10.3480 C.3      12        0    0.0000
     74 C         121.2636   35.8152   -8.9639 C.3      12        0    0.0000
     75 H         119.7072   35.5736  -10.4554 H        12        0    0.0000
     76 H         120.9065   34.2852  -10.4596 H        12        0    0.0000
     77 H         122.3359   35.6097   -8.8561 H        12        0    0.0000
     78 H         121.1379   36.8993   -8.8527 H        12        0    0.0000
     79 C         120.4922   35.0955   -7.8044 C.3      13        0    0.0000
     80 C         120.9722   35.5458   -6.4203 C.3      13        0    0.0000
     81 H         119.4195   35.2976   -7.9147 H        13        0    0.0000
     82 H         120.6214   34.0116   -7.9131 H        13        0    0.0000
     83 H         122.0447   35.3434   -6.3098 H        13        0    0.0000
     84 H         120.8434   36.6299   -6.3117 H        13        0    0.0000
     85 C         120.2002   34.8267   -5.2608 C.3      14        0    0.0000
     86 C         120.6815   35.2755   -3.8766 C.3      14        0    0.0000
     87 H         119.1278   35.0303   -5.3704 H        14        0    0.0000
     88 H         120.3278   33.7425   -5.3701 H        14        0    0.0000
     89 H         121.7535   35.0699   -3.7662 H        14        0    0.0000
     90 H         120.5559   36.3599   -3.7681 H        14        0    0.0000
     91 C         119.9075   34.5586   -2.7172 C.3      15        0    0.0000
     92 C         120.3922   35.0037   -1.3330 C.3      15        0    0.0000
     93 H         118.8359   34.7672   -2.8255 H        15        0    0.0000
     94 H         120.0301   33.4740   -2.8278 H        15        0    0.0000
     95 H         121.4658   34.8037   -1.2281 H        15        0    0.0000
     96 H         120.2610   36.0869   -1.2189 H        15        0    0.0000
     97 C         119.6272   34.2771   -0.1736 C.3      16        0    0.0000
     98 C         120.2563   34.5491    1.1973 C.3      16        0    0.0000
     99 H         118.5809   34.6067   -0.1793 H        16        0    0.0000
    100 H         119.6191   33.1990   -0.3765 H        16        0    0.0000
    101 H         121.3219   34.2885    1.1806 H        16        0    0.0000
    102 H         120.1974   35.6190    1.4327 H        16        0    0.0000
    103 C         119.5563   33.7402    2.3433 C.3      17        0    0.0000
    104 C         120.5655   33.1035    3.3050 C.3      17        0    0.0000
    105 H         118.8862   34.4131    2.8925 H        17        0    0.0000
    106 H         118.9243   32.9645    1.8934 H        17        0    0.0000
    107 H         121.3983   32.6658    2.7407 H        17        0    0.0000
    108 H         120.9973   33.8708    3.9594 H        17        0    0.0000
    109 C         119.9162   31.9878    4.1945 C.3      18        0    0.0000
    110 C         119.9792   32.3258    5.6881 C.3      18        0    0.0000
    111 H         118.8732   31.8501    3.8836 H        18        0    0.0000
    112 H         120.4304   31.0380    4.0017 H        18        0    0.0000
    113 H         120.8417   31.8296    6.1500 H        18        0    0.0000
    114 H         120.1264   33.4044    5.8238 H        18        0    0.0000
    115 C         118.6795   31.8934    6.4504 C.3      19        0    0.0000
    116 C         118.8969   30.6393    7.3042 C.3      19        0    0.0000
    117 H         118.3468   32.7260    7.0826 H        19        0    0.0000
    118 H         117.8823   31.7161    5.7178 H        19        0    0.0000
    119 H         119.7169   30.0397    6.8900 H        19        0    0.0000
    120 H         119.1967   30.9235    8.3205 H        19        0    0.0000
    121 C         117.6106   29.7471    7.3877 C.3      20        0    0.0000
    122 C         117.4397   29.1021    8.7675 C.3      20        0    0.0000
    123 H         116.7357   30.3649    7.1503 H        20        0    0.0000
    124 H         117.6677   28.9712    6.6142 H        20        0    0.0000
    125 H         118.2013   28.3267    8.9172 H        20        0    0.0000
    126 H         117.5935   29.8508    9.5544 H        20        0    0.0000
    127 C         116.0217   28.4597    8.9515 C.3      21        0    0.0000
    128 C         115.8750   27.7533   10.3037 C.3      21        0    0.0000
    129 H         115.2622   29.2452    8.8531 H        21        0    0.0000
    130 H         115.8470   27.7485    8.1347 H        21        0    0.0000
    131 H         116.6477   26.9820   10.4110 H        21        0    0.0000
    132 H         116.0289   28.4692   11.1207 H        21        0    0.0000
    133 C         114.4671   27.0856   10.4756 C.3      22        0    0.0000
    134 C         114.5667   25.6424   10.9819 C.3      22        0    0.0000
    135 H         113.8724   27.6886   11.1728 H        22        0    0.0000
    136 H         113.9438   27.1108    9.5117 H        22        0    0.0000
    137 H         115.5691   25.2427   10.7843 H        22        0    0.0000
    138 H         114.4252   25.6147   12.0694 H        22        0    0.0000
    139 C         113.5067   24.7027   10.3104 C.3      23        0    0.0000
    140 C         114.0883   23.3291    9.9585 C.3      23        0    0.0000
    141 H         112.6546   24.5871   10.9917 H        23        0    0.0000
    142 H         113.1231   25.1916    9.4063 H        23        0    0.0000
    143 H         114.9404   23.4447    9.2772 H        23        0    0.0000
    144 H         114.4719   22.8402   10.8625 H        23        0    0.0000
    145 H         113.3513   22.6757    9.4916 H        23        0    0.0000
    146 H         119.2798   35.8687  -40.4349 H         0        0    0.0000
@<TRIPOS>BOND
     1     1     2      1
     2     1     3      1
     3     1     4      1
     4     1   146      H
     5     2     5      1
     6     2     6      1
     7     2     7      1
     8     7     8      1
     9     7     9      1
    10     7    10      1
    11     8    11      1
    12     8    12      1
    13     8    13      1
    14    13    14      1
    15    13    15      1
    16    13    16      1
    17    14    17      1
    18    14    18      1
    19    14    19      1
    20    19    20      1
    21    19    21      1
    22    19    22      1
    23    20    23      1
    24    20    24      1
    25    20    25      1
    26    25    26      1
    27    25    27      1
    28    25    28      1
    29    26    29      1
    30    26    30      1
    31    26    31      1
    32    31    32      1
    33    31    33      1
    34    31    34      1
    35    32    35      1
    36    32    36      1
    37    32    37      1
    38    37    38      1
    39    37    39      1
    40    37    40      1
    41    38    41      1
    42    38    42      1
    43    38    43      1
    44    43    44      1
    45    43    45      1
    46    43    46      1
    47    44    47      1
    48    44    48      1
    49    44    49      1
    50    49    50      1
    51    49    51      1
    52    49    52      1
    53    50    53      1
    54    50    54      1
    55    50    55      1
    56    55    56      1
    57    55    57      1
    58    55    58      1
    59    56    59      1
    60    56    60      1
    61    56    61      1
    62    61    62      1
    63    61    63      1
    64    61    64      1
    65    62    65      1
    66    62    66      1
    67    62    67      1
    68    67    68      1
    69    67    69      1
    70    67    70      1
    71    68    71      1
    72    68    72      1
    73    68    73      1
    74    73    74      1
    75    73    75      1
    76    73    76      1
    77    74    77      1
    78    74    78      1
    79    74    79      1
    80    79    80      1
    81    79    81      1
    82    79    82      1
    83    80    83      1
    84    80    84      1
    85    80    85      1
    86    85    86      1
    87    85    87      1
    88    85    88      1
    89    86    89      1
    90    86    90      1
    91    86    91      1
    92    91    92      1
    93    91    93      1
    94    91    94      1
    95    92    95      1
    96    92    96      1
    97    92    97      1
    98    97    98      1
    99    97    99      1
   100    97   100      1
   101    98   101      1
   102    98   102      1
   103    98   103      1
   104   103   104      1
   105   103   105      1
   106   103   106      1
   107   104   107      1
   108   104   108      1
   109   104   109      1
   110   109   110      1
   111   109   111      1
   112   109   112      1
   113   110   113      1
   114   110   114      1
   115   110   115      1
   116   115   116      1
   117   115   117      1
   118   115   118      1
   119   116   119      1
   120   116   120      1
   121   116   121      1
   122   121   122      1
   123   121   123      1
   124   121   124      1
   125   122   125      1
   126   122   126      1
   127   122   127      1
   128   127   128      1
   129   127   129      1
   130   127   130      1
   131   128   131      1
   132   128   132      1
   133   128   133      1
   134   133   134      1
   135   133   135      1
   136   133   136      1
   137   134   137      1
   138   134   138      1
   139   134   139      1
   140   139   140      1
   141   139   141      1
   142   139   142      1
   143   140   143      1
   144   140   144      1
   145   140   145      H
