###
### Created by PolyChef-cpp17 on Thu Feb 27 19:40:30 2025
###

@<TRIPOS>MOLECULE
NO_INFO
1880 1879 1 0 0
SMALL
USER_CHARGES


@<TRIPOS>ATOM
      1 C         149.2798   53.1887  120.6551 C.3       0        0    0.0000
      2 C         148.4513   52.0375  120.0742 C.3       0        0    0.0000
      3 H         148.8875   54.1502  120.3015 H         0        0    0.0000
      4 H         150.3162   53.1221  120.3014 H         0        0    0.0000
      5 H         148.4071   51.2073  120.7900 H         0        0    0.0000
      6 H         147.4176   52.3648  119.9073 H         0        0    0.0000
      7 C         149.0381   51.5070  118.7208 C.3       1        0    0.0000
      8 C         149.6369   52.6305  117.8673 C.3       1        0    0.0000
      9 H         149.8034   50.7518  118.9391 H         1        0    0.0000
     10 H         148.2413   50.9968  118.1657 H         1        0    0.0000
     11 H         148.9464   53.4820  117.8283 H         1        0    0.0000
     12 H         150.5639   52.9973  118.3251 H         1        0    0.0000
     13 C         149.9467   52.1636  116.4032 C.3       2        0    0.0000
     14 C         149.8858   53.3203  115.3996 C.3       2        0    0.0000
     15 H         150.9407   51.6998  116.3829 H         2        0    0.0000
     16 H         149.2290   51.3831  116.1217 H         2        0    0.0000
     17 H         148.9646   53.8977  115.5465 H         2        0    0.0000
     18 H         150.7210   54.0109  115.5703 H         2        0    0.0000
     19 C         149.9381   52.8216  113.9143 C.3       3        0    0.0000
     20 C         149.8197   53.9735  112.9103 C.3       3        0    0.0000
     21 H         150.8790   52.2799  113.7562 H         3        0    0.0000
     22 H         149.1281   52.0991  113.7552 H         3        0    0.0000
     23 H         148.8834   54.5210  113.0747 H         3        0    0.0000
     24 H         150.6353   54.6910  113.0631 H         3        0    0.0000
     25 C         149.8584   53.4733  111.4251 C.3       4        0    0.0000
     26 C         149.8525   54.6319  110.4217 C.3       4        0    0.0000
     27 H         150.7547   52.8570  111.2827 H         4        0    0.0000
     28 H         148.9952   52.8194  111.2496 H         4        0    0.0000
     29 H         148.9492   55.2401  110.5546 H         4        0    0.0000
     30 H         150.7078   55.2937  110.6062 H         4        0    0.0000
     31 C         149.9113   54.1323  108.9370 C.3       5        0    0.0000
     32 C         148.8450   54.7956  108.0583 C.3       5        0    0.0000
     33 H         150.9111   54.3369  108.5344 H         5        0    0.0000
     34 H         149.7839   53.0427  108.9252 H         5        0    0.0000
     35 H         147.8886   54.8372  108.5941 H         5        0    0.0000
     36 H         149.1292   55.8325  107.8401 H         5        0    0.0000
     37 C         148.6331   54.0342  106.7045 C.3       6        0    0.0000
     38 C         148.9662   54.9065  105.4891 C.3       6        0    0.0000
     39 H         149.2590   53.1332  106.7038 H         6        0    0.0000
     40 H         147.5915   53.6941  106.6493 H         6        0    0.0000
     41 H         148.0730   55.4534  105.1625 H         6        0    0.0000
     42 H         149.7153   55.6604  105.7611 H         6        0    0.0000
     43 C         149.5114   54.0641  104.2847 C.3       7        0    0.0000
     44 C         148.9191   54.5151  102.9450 C.3       7        0    0.0000
     45 H         150.6049   54.1489  104.2601 H         7        0    0.0000
     46 H         149.2814   53.0059  104.4605 H         7        0    0.0000
     47 H         147.8303   54.6188  103.0310 H         7        0    0.0000
     48 H         149.3094   55.5042  102.6751 H         7        0    0.0000
     49 C         149.2410   53.5110  101.7850 C.3       8        0    0.0000
     50 C         149.0516   54.1422  100.4012 C.3       8        0    0.0000
     51 H         150.2733   53.1579  101.8993 H         8        0    0.0000
     52 H         148.5938   52.6313  101.8890 H         8        0    0.0000
     53 H         148.0001   54.4186  100.2546 H         8        0    0.0000
     54 H         149.6341   55.0688  100.3275 H         8        0    0.0000
     55 C         149.4867   53.1783   99.2440 C.3       9        0    0.0000
     56 C         149.2254   53.7792   97.8585 C.3       9        0    0.0000
     57 H         150.5529   52.9469   99.3587 H         9        0    0.0000
     58 H         148.9452   52.2302   99.3511 H         9        0    0.0000
     59 H         148.1617   54.0241   97.7492 H         9        0    0.0000
     60 H         149.7785   54.7200   97.7461 H         9        0    0.0000
     61 C         149.6416   52.8070   96.7012 C.3      10        0    0.0000
     62 C         149.3810   53.4081   95.3157 C.3      10        0    0.0000
     63 H         150.7053   52.5618   96.8108 H        10        0    0.0000
     64 H         149.0883   51.8664   96.8134 H        10        0    0.0000
     65 H         148.3175   53.6544   95.2065 H        10        0    0.0000
     66 H         149.9352   54.3482   95.2031 H        10        0    0.0000
     67 C         149.7957   52.4354   94.1585 C.3      11        0    0.0000
     68 C         149.5399   53.0385   92.7729 C.3      11        0    0.0000
     69 H         150.8582   52.1860   94.2699 H        11        0    0.0000
     70 H         149.2386   51.4967   94.2688 H        11        0    0.0000
     71 H         148.4769   53.2856   92.6606 H        11        0    0.0000
     72 H         150.0951   53.9784   92.6634 H        11        0    0.0000
     73 C         149.9578   52.0671   91.6157 C.3      12        0    0.0000
     74 C         149.6948   52.6672   90.2301 C.3      12        0    0.0000
     75 H         151.0221   51.8245   91.7247 H        12        0    0.0000
     76 H         149.4068   51.1251   91.7284 H        12        0    0.0000
     77 H         148.6301   52.9081   90.1205 H        12        0    0.0000
     78 H         150.2443   53.6100   90.1181 H        12        0    0.0000
     79 C         150.1150   51.6968   89.0729 C.3      13        0    0.0000
     80 C         149.8529   52.2972   87.6873 C.3      13        0    0.0000
     81 H         151.1795   51.4553   89.1830 H        13        0    0.0000
     82 H         149.5650   50.7541   89.1846 H        13        0    0.0000
     83 H         148.7870   52.5308   87.5741 H        13        0    0.0000
     84 H         150.3961   53.2441   87.5788 H        13        0    0.0000
     85 C         150.2843   51.3317   86.5301 C.3      14        0    0.0000
     86 C         150.0200   51.9312   85.1446 C.3      14        0    0.0000
     87 H         151.3507   51.0996   86.6424 H        14        0    0.0000
     88 H         149.7424   50.3842   86.6396 H        14        0    0.0000
     89 H         148.9449   52.1006   85.0068 H        14        0    0.0000
     90 H         150.5067   52.9107   85.0594 H        14        0    0.0000
     91 C         150.5382   51.0075   83.9889 C.3      15        0    0.0000
     92 C         150.2770   51.6086   82.6034 C.3      15        0    0.0000
     93 H         151.6128   50.8360   84.1280 H        15        0    0.0000
     94 H         150.0496   50.0288   84.0725 H        15        0    0.0000
     95 H         149.3180   52.1413   82.5992 H        15        0    0.0000
     96 H         151.0498   52.3492   82.3629 H        15        0    0.0000
     97 C         150.2543   50.5182   81.4774 C.3      16        0    0.0000
     98 C         149.9407   51.1123   80.0998 C.3      16        0    0.0000
     99 H         151.2271   50.0116   81.4560 H        16        0    0.0000
    100 H         149.5083   49.7569   81.7374 H        16        0    0.0000
    101 H         150.7847   51.7203   79.7513 H        16        0    0.0000
    102 H         149.8068   50.3086   79.3651 H        16        0    0.0000
    103 C         148.6500   52.0018   80.1162 C.3      17        0    0.0000
    104 C         148.3771   52.6546   78.7567 C.3      17        0    0.0000
    105 H         147.7961   51.3805   80.4134 H        17        0    0.0000
    106 H         148.7620   52.7733   80.8882 H        17        0    0.0000
    107 H         149.1453   53.4071   78.5397 H        17        0    0.0000
    108 H         148.4380   51.9033   77.9596 H        17        0    0.0000
    109 C         146.9682   53.3396   78.6987 C.3      18        0    0.0000
    110 C         146.7115   54.0269   77.3530 C.3      18        0    0.0000
    111 H         146.1982   52.5812   78.8867 H        18        0    0.0000
    112 H         146.8964   54.0702   79.5139 H        18        0    0.0000
    113 H         147.6627   54.2199   76.8417 H        18        0    0.0000
    114 H         146.1302   53.3661   76.6980 H        18        0    0.0000
    115 C         145.9410   55.3824   77.5156 C.3      19        0    0.0000
    116 C         146.0087   56.2444   76.2501 C.3      19        0    0.0000
    117 H         144.8955   55.1667   77.7683 H        19        0    0.0000
    118 H         146.3644   55.9299   78.3668 H        19        0    0.0000
    119 H         146.0027   55.6051   75.3587 H        19        0    0.0000
    120 H         145.1211   56.8857   76.1839 H        19        0    0.0000
    121 C         147.2890   57.1484   76.2150 C.3      20        0    0.0000
    122 C         147.2865   58.1129   75.0238 C.3      20        0    0.0000
    123 H         147.3503   57.7114   77.1546 H        20        0    0.0000
    124 H         148.1759   56.5040   76.1754 H        20        0    0.0000
    125 H         147.6066   57.5887   74.1147 H        20        0    0.0000
    126 H         146.2684   58.4761   74.8360 H        20        0    0.0000
    127 C         148.2280   59.3448   75.2548 C.3      21        0    0.0000
    128 C         148.2021   60.3246   74.0765 C.3      21        0    0.0000
    129 H         147.9218   59.8560   76.1759 H        21        0    0.0000
    130 H         149.2501   58.9825   75.4204 H        21        0    0.0000
    131 H         148.7749   59.9160   73.2348 H        21        0    0.0000
    132 H         147.1728   60.4589   73.7215 H        21        0    0.0000
    133 C         148.7925   61.7263   74.4564 C.3      22        0    0.0000
    134 C         148.7596   62.7085   73.2803 C.3      22        0    0.0000
    135 H         148.2233   62.1324   75.3017 H        22        0    0.0000
    136 H         149.8237   61.5926   74.8061 H        22        0    0.0000
    137 H         149.4903   62.4085   72.5190 H        22        0    0.0000
    138 H         147.7745   62.6850   72.7980 H        22        0    0.0000
    139 C         149.0690   64.1793   73.7258 C.3      23        0    0.0000
    140 C         149.0497   65.1593   72.5476 C.3      23        0    0.0000
    141 H         148.3322   64.4829   74.4797 H        23        0    0.0000
    142 H         150.0497   64.2010   74.2171 H        23        0    0.0000
    143 H         149.7873   64.8564   71.7941 H        23        0    0.0000
    144 H         148.0694   65.1368   72.0556 H        23        0    0.0000
    145 C         149.3577   66.6304   72.9933 C.3      24        0    0.0000
    146 C         149.3307   67.6116   71.8162 C.3      24        0    0.0000
    147 H         148.6235   66.9314   73.7508 H        24        0    0.0000
    148 H         150.3405   66.6539   73.4802 H        24        0    0.0000
    149 H         150.1619   67.4010   71.1318 H        24        0    0.0000
    150 H         148.4068   67.4816   71.2392 H        24        0    0.0000
    151 C         149.4280   69.1044   72.2849 C.3      25        0    0.0000
    152 C         149.4113   70.0852   71.1072 C.3      25        0    0.0000
    153 H         148.5926   69.3171   72.9634 H        25        0    0.0000
    154 H         150.3482   69.2327   72.8682 H        25        0    0.0000
    155 H         150.2595   69.8867   70.4403 H        25        0    0.0000
    156 H         148.5016   69.9418   70.5111 H        25        0    0.0000
    157 C         149.4772   71.5792   71.5773 C.3      26        0    0.0000
    158 C         149.4465   72.5604   70.4003 C.3      26        0    0.0000
    159 H         148.6347   71.7750   72.2523 H        26        0    0.0000
    160 H         150.3920   71.7250   72.1649 H        26        0    0.0000
    161 H         150.3048   72.3831   69.7404 H        26        0    0.0000
    162 H         148.5456   72.3956   69.7965 H        26        0    0.0000
    163 C         149.4721   74.0551   70.8721 C.3      27        0    0.0000
    164 C         149.4622   75.0361   69.6946 C.3      27        0    0.0000
    165 H         148.6056   74.2363   71.5200 H        27        0    0.0000
    166 H         150.3654   74.2162   71.4883 H        27        0    0.0000
    167 H         150.2144   74.7408   68.9526 H        27        0    0.0000
    168 H         148.4900   75.0050   69.1872 H        27        0    0.0000
    169 C         149.7494   76.5096   70.1463 C.3      28        0    0.0000
    170 C         149.9039   77.4624   68.9559 C.3      28        0    0.0000
    171 H         148.9307   76.8466   70.7942 H        28        0    0.0000
    172 H         150.6601   76.5208   70.7578 H        28        0    0.0000
    173 H         150.1432   76.8947   68.0482 H        28        0    0.0000
    174 H         148.9561   77.9801   68.7630 H        28        0    0.0000
    175 C         151.0249   78.5323   69.1929 C.3      29        0    0.0000
    176 C         151.2581   79.4122   67.9598 C.3      29        0    0.0000
    177 H         150.7437   79.1548   70.0514 H        29        0    0.0000
    178 H         151.9532   78.0167   69.4682 H        29        0    0.0000
    179 H         152.2584   79.8607   68.0015 H        29        0    0.0000
    180 H         151.2249   78.8006   67.0496 H        29        0    0.0000
    181 C         150.1952   80.5579   67.8378 C.3      30        0    0.0000
    182 C         150.4933   81.5049   66.6701 C.3      30        0    0.0000
    183 H         149.2027   80.1076   67.7130 H        30        0    0.0000
    184 H         150.1704   81.1190   68.7802 H        30        0    0.0000
    185 H         150.3548   80.9810   65.7162 H        30        0    0.0000
    186 H         149.7852   82.3428   66.6751 H        30        0    0.0000
    187 C         151.9522   82.0758   66.7258 C.3      31        0    0.0000
    188 C         152.1885   83.1691   65.6780 C.3      31        0    0.0000
    189 H         152.1387   82.4722   67.7316 H        31        0    0.0000
    190 H         152.6605   81.2516   66.5757 H        31        0    0.0000
    191 H         153.2000   83.5802   65.7847 H        31        0    0.0000
    192 H         152.1265   82.7429   64.6690 H        31        0    0.0000
    193 C         151.1523   84.3395   65.7965 C.3      32        0    0.0000
    194 C         151.2313   85.3076   64.6109 C.3      32        0    0.0000
    195 H         150.1440   83.9132   65.8676 H        32        0    0.0000
    196 H         151.3334   84.8783   66.7348 H        32        0    0.0000
    197 H         151.8669   86.1644   64.8666 H        32        0    0.0000
    198 H         151.7005   84.8125   63.7517 H        32        0    0.0000
    199 C         149.8196   85.8362   64.1805 C.3      33        0    0.0000
    200 C         149.8767   86.6598   62.8892 C.3      33        0    0.0000
    201 H         149.1458   84.9802   64.0513 H        33        0    0.0000
    202 H         149.4057   86.4428   64.9955 H        33        0    0.0000
    203 H         148.8660   86.9684   62.5949 H        33        0    0.0000
    204 H         150.4514   87.5795   63.0547 H        33        0    0.0000
    205 C         150.5269   85.8640   61.7053 C.3      34        0    0.0000
    206 C         150.3619   86.5833   60.3620 C.3      34        0    0.0000
    207 H         151.5915   85.7133   61.9230 H        34        0    0.0000
    208 H         150.0711   84.8673   61.6568 H        34        0    0.0000
    209 H         149.3828   87.0762   60.3170 H        34        0    0.0000
    210 H         151.1170   87.3729   60.2629 H        34        0    0.0000
    211 C         150.4913   85.6047   59.1442 C.3      35        0    0.0000
    212 C         150.0319   86.2477   57.8310 C.3      35        0    0.0000
    213 H         151.5363   85.2818   59.0596 H        35        0    0.0000
    214 H         149.8991   84.7043   59.3496 H        35        0    0.0000
    215 H         149.2632   87.0044   58.0314 H        35        0    0.0000
    216 H         150.8708   86.7694   57.3540 H        35        0    0.0000
    217 C         149.4536   85.1943   56.8242 C.3      36        0    0.0000
    218 C         148.7162   85.8537   55.6535 C.3      36        0    0.0000
    219 H         150.2774   84.5747   56.4488 H        36        0    0.0000
    220 H         148.7757   84.5228   57.3655 H        36        0    0.0000
    221 H         148.2944   86.8161   55.9688 H        36        0    0.0000
    222 H         149.4194   86.0694   54.8396 H        36        0    0.0000
    223 C         147.5599   84.9533   55.0970 C.3      37        0    0.0000
    224 C         146.7477   85.6595   54.0058 C.3      37        0    0.0000
    225 H         147.9927   84.0255   54.7028 H        37        0    0.0000
    226 H         146.9037   84.6666   55.9281 H        37        0    0.0000
    227 H         147.3308   86.4838   53.5769 H        37        0    0.0000
    228 H         146.5354   84.9633   53.1849 H        37        0    0.0000
    229 C         145.3918   86.2288   54.5490 C.3      38        0    0.0000
    230 C         144.6380   87.0421   53.4911 C.3      38        0    0.0000
    231 H         144.7705   85.3931   54.8943 H        38        0    0.0000
    232 H         145.5970   86.8528   55.4276 H        38        0    0.0000
    233 H         145.3470   87.6187   52.8841 H        38        0    0.0000
    234 H         144.1102   86.3687   52.8044 H        38        0    0.0000
    235 C         143.5998   88.0287   54.1287 C.3      39        0    0.0000
    236 C         142.8152   88.8106   53.0694 C.3      39        0    0.0000
    237 H         142.9101   87.4560   54.7611 H        39        0    0.0000
    238 H         144.1320   88.7226   54.7910 H        39        0    0.0000
    239 H         142.7140   89.8595   53.3743 H        39        0    0.0000
    240 H         143.3631   88.8102   52.1190 H        39        0    0.0000
    241 C         141.3855   88.2143   52.8286 C.3      40        0    0.0000
    242 C         140.6376   88.9355   51.7018 C.3      40        0    0.0000
    243 H         141.4825   87.1472   52.5930 H        40        0    0.0000
    244 H         140.8132   88.2800   53.7622 H        40        0    0.0000
    245 H         139.9670   89.6954   52.1217 H        40        0    0.0000
    246 H         141.3494   89.4653   51.0568 H        40        0    0.0000
    247 C         139.7953   87.9491   50.8215 C.3      41        0    0.0000
    248 C         138.9875   88.6787   49.7426 C.3      41        0    0.0000
    249 H         140.4735   87.2227   50.3569 H        41        0    0.0000
    250 H         139.1224   87.3792   51.4742 H        41        0    0.0000
    251 H         138.6860   89.6697   50.1041 H        41        0    0.0000
    252 H         139.6093   88.8433   48.8539 H        41        0    0.0000
    253 C         137.7044   87.8828   49.3211 C.3      42        0    0.0000
    254 C         136.6424   88.7871   48.6859 C.3      42        0    0.0000
    255 H         137.9940   87.0917   48.6183 H        42        0    0.0000
    256 H         137.2920   87.3825   50.2060 H        42        0    0.0000
    257 H         136.7424   89.8106   49.0682 H        42        0    0.0000
    258 H         136.7936   88.8400   47.6006 H        42        0    0.0000
    259 C         135.1856   88.2821   48.9691 C.3      43        0    0.0000
    260 C         134.2150   89.4351   49.2474 C.3      43        0    0.0000
    261 H         134.8396   87.6990   48.1066 H        43        0    0.0000
    262 H         135.2094   87.5956   49.8244 H        43        0    0.0000
    263 H         134.6805   90.1642   49.9222 H        43        0    0.0000
    264 H         133.9873   89.9683   48.3161 H        43        0    0.0000
    265 C         132.8722   88.9400   49.8873 C.3      44        0    0.0000
    266 C         131.8376   90.0641   50.0092 C.3      44        0    0.0000
    267 H         132.4695   88.1227   49.2762 H        44        0    0.0000
    268 H         133.0868   88.5173   50.8767 H        44        0    0.0000
    269 H         132.2099   90.8467   50.6818 H        44        0    0.0000
    270 H         131.6796   90.5374   49.0321 H        44        0    0.0000
    271 C         130.4596   89.5474   50.5490 C.3      45        0    0.0000
    272 C         129.3972   90.6516   50.5811 C.3      45        0    0.0000
    273 H         130.1207   88.7176   49.9164 H        45        0    0.0000
    274 H         130.6058   89.1367   51.5558 H        45        0    0.0000
    275 H         129.4830   91.2293   51.5098 H        45        0    0.0000
    276 H         129.5615   91.3557   49.7559 H        45        0    0.0000
    277 C         127.9418   90.0791   50.4746 C.3      46        0    0.0000
    278 C         126.8775   91.1788   50.5580 C.3      46        0    0.0000
    279 H         127.8450   89.5329   49.5281 H        46        0    0.0000
    280 H         127.7901   89.3472   51.2776 H        46        0    0.0000
    281 H         127.1562   91.9149   51.3222 H        46        0    0.0000
    282 H         126.8203   91.7199   49.6054 H        46        0    0.0000
    283 C         125.4584   90.6075   50.9006 C.3      47        0    0.0000
    284 C         124.3823   91.6986   50.9205 C.3      47        0    0.0000
    285 H         125.1998   89.8375   50.1632 H        47        0    0.0000
    286 H         125.5048   90.1069   51.8757 H        47        0    0.0000
    287 H         124.5930   92.4202   51.7195 H        47        0    0.0000
    288 H         124.3975   92.2592   49.9777 H        47        0    0.0000
    289 C         122.9448   91.1114   51.1362 C.3      48        0    0.0000
    290 C         121.8502   92.1633   50.9260 C.3      48        0    0.0000
    291 H         122.7981   90.2725   50.4446 H        48        0    0.0000
    292 H         122.8800   90.6986   52.1505 H        48        0    0.0000
    293 H         121.9538   92.9670   51.6655 H        48        0    0.0000
    294 H         121.9597   92.6280   49.9382 H        48        0    0.0000
    295 C         120.4105   91.5537   51.0407 C.3      49        0    0.0000
    296 C         119.4921   92.0149   49.9037 C.3      49        0    0.0000
    297 H         120.4888   90.4594   51.0405 H        49        0    0.0000
    298 H         119.9819   91.8387   52.0095 H        49        0    0.0000
    299 H         119.0135   92.9658   50.1690 H        49        0    0.0000
    300 H         120.0805   92.2007   48.9966 H        49        0    0.0000
    301 C         118.3775   90.9624   49.5761 C.3      50        0    0.0000
    302 C         117.0215   91.3454   50.1792 C.3      50        0    0.0000
    303 H         118.2910   90.8663   48.4867 H        50        0    0.0000
    304 H         118.6942   89.9826   49.9546 H        50        0    0.0000
    305 H         117.1633   92.0582   51.0010 H        50        0    0.0000
    306 H         116.4044   91.8512   49.4264 H        50        0    0.0000
    307 C         116.2387   90.0997   50.7203 C.3      51        0    0.0000
    308 C         114.9796   89.8029   49.8983 C.3      51        0    0.0000
    309 H         116.9077   89.2302   50.7108 H        51        0    0.0000
    310 H         115.9699   90.2789   51.7687 H        51        0    0.0000
    311 H         114.1002   90.2423   50.3853 H        51        0    0.0000
    312 H         115.0578   90.2698   48.9086 H        51        0    0.0000
    313 C         114.7393   88.2649   49.7138 C.3      52        0    0.0000
    314 C         113.5850   87.9688   48.7501 C.3      52        0    0.0000
    315 H         115.6643   87.8041   49.3456 H        52        0    0.0000
    316 H         114.5341   87.8189   50.6949 H        52        0    0.0000
    317 H         113.9749   87.5547   47.8120 H        52        0    0.0000
    318 H         112.9225   87.2070   49.1794 H        52        0    0.0000
    319 C         112.7396   89.2483   48.4247 C.3      53        0    0.0000
    320 C         111.7378   89.0094   47.2896 C.3      53        0    0.0000
    321 H         112.2110   89.5632   49.3330 H        53        0    0.0000
    322 H         113.4222   90.0648   48.1584 H        53        0    0.0000
    323 H         112.0430   88.1391   46.6955 H        53        0    0.0000
    324 H         110.7487   88.7772   47.7035 H        53        0    0.0000
    325 C         111.6096   90.2498   46.3397 C.3      54        0    0.0000
    326 C         110.2746   90.2694   45.5869 C.3      54        0    0.0000
    327 H         111.7188   91.1644   46.9356 H        54        0    0.0000
    328 H         112.4433   90.2369   45.6267 H        54        0    0.0000
    329 H         110.2490   89.4612   44.8456 H        54        0    0.0000
    330 H         109.4474   90.0845   46.2833 H        54        0    0.0000
    331 C         110.0246   91.6336   44.8561 C.3      55        0    0.0000
    332 C         108.5483   92.0443   44.8819 C.3      55        0    0.0000
    333 H         110.6389   92.4077   45.3325 H        55        0    0.0000
    334 H         110.3733   91.5484   43.8194 H        55        0    0.0000
    335 H         107.9494   91.3318   44.3012 H        55        0    0.0000
    336 H         108.1668   92.0121   45.9100 H        55        0    0.0000
    337 C         108.3219   93.4838   44.3039 C.3      56        0    0.0000
    338 C         106.9106   93.6658   43.7346 C.3      56        0    0.0000
    339 H         108.5041   94.2170   45.0993 H        56        0    0.0000
    340 H         109.0695   93.6731   43.5236 H        56        0    0.0000
    341 H         106.6352   92.7954   43.1262 H        56        0    0.0000
    342 H         106.1801   93.7232   44.5511 H        56        0    0.0000
    343 C         106.7870   94.9570   42.8543 C.3      57        0    0.0000
    344 C         105.4305   95.0502   42.1470 C.3      57        0    0.0000
    345 H         106.9395   95.8361   43.4927 H        57        0    0.0000
    346 H         107.5976   94.9600   42.1152 H        57        0    0.0000
    347 H         104.6301   95.1860   42.8849 H        57        0    0.0000
    348 H         105.4075   95.9299   41.4919 H        57        0    0.0000
    349 C         105.1178   93.7745   41.2913 C.3      58        0    0.0000
    350 C         103.6592   93.7327   40.8225 C.3      58        0    0.0000
    351 H         105.7917   93.7553   40.4259 H        58        0    0.0000
    352 H         105.3466   92.8832   41.8886 H        58        0    0.0000
    353 H         103.0233   94.2902   41.5215 H        58        0    0.0000
    354 H         103.5632   94.2260   39.8473 H        58        0    0.0000
    355 C         103.1152   92.2673   40.7033 C.3      59        0    0.0000
    356 C         101.6776   92.2227   40.1739 C.3      59        0    0.0000
    357 H         103.7779   91.6970   40.0407 H        59        0    0.0000
    358 H         103.1680   91.7892   41.6893 H        59        0    0.0000
    359 H         101.6676   92.4217   39.0951 H        59        0    0.0000
    360 H         101.2565   91.2192   40.3130 H        59        0    0.0000
    361 C         100.7487   93.2639   40.8884 C.3      60        0    0.0000
    362 C          99.4557   93.5213   40.1069 C.3      60        0    0.0000
    363 H         100.5132   92.8956   41.8946 H        60        0    0.0000
    364 H         101.3030   94.2018   41.0180 H        60        0    0.0000
    365 H          99.2623   92.6914   39.4160 H        60        0    0.0000
    366 H          98.6024   93.5637   40.7950 H        60        0    0.0000
    367 C          99.5120   94.8573   39.2887 C.3      61        0    0.0000
    368 C          98.1185   95.3464   38.8786 C.3      61        0    0.0000
    369 H         100.0159   95.6213   39.8934 H        61        0    0.0000
    370 H         100.1328   94.7005   38.3979 H        61        0    0.0000
    371 H          97.8854   95.0081   37.8614 H        61        0    0.0000
    372 H          97.3577   94.9103   39.5378 H        61        0    0.0000
    373 C          97.9977   96.9084   38.9318 C.3      62        0    0.0000
    374 C          96.6255   97.4013   38.4594 C.3      62        0    0.0000
    375 H          98.1841   97.2428   39.9599 H        62        0    0.0000
    376 H          98.7889   97.3456   38.3100 H        62        0    0.0000
    377 H          96.3967   96.9860   37.4702 H        62        0    0.0000
    378 H          95.8428   97.0439   39.1399 H        62        0    0.0000
    379 C          96.5508   98.9652   38.3805 C.3      63        0    0.0000
    380 C          95.1265   99.4661   38.1171 C.3      63        0    0.0000
    381 H          96.9295   99.3852   39.3205 H        63        0    0.0000
    382 H          97.2242   99.3117   37.5867 H        63        0    0.0000
    383 H          94.7728   99.1004   37.1451 H        63        0    0.0000
    384 H          94.4407   99.0645   38.8733 H        63        0    0.0000
    385 C          95.0348  101.0310   38.1320 C.3      64        0    0.0000
    386 C          93.8484  101.5355   38.9608 C.3      64        0    0.0000
    387 H          95.9725  101.4364   38.5319 H        64        0    0.0000
    388 H          94.9517  101.3902   37.0987 H        64        0    0.0000
    389 H          92.9426  101.5636   38.3426 H        64        0    0.0000
    390 H          93.6448  100.8427   39.7867 H        64        0    0.0000
    391 C          94.1016  102.9654   39.5514 C.3      65        0    0.0000
    392 C          93.4102  104.0622   38.7341 C.3      65        0    0.0000
    393 H          93.7448  102.9878   40.5886 H        65        0    0.0000
    394 H          95.1829  103.1472   39.5862 H        65        0    0.0000
    395 H          93.1862  103.6947   37.7250 H        65        0    0.0000
    396 H          92.4496  104.3251   39.1941 H        65        0    0.0000
    397 C          94.2858  105.3573   38.6175 C.3      66        0    0.0000
    398 C          93.5305  106.6118   39.0703 C.3      66        0    0.0000
    399 H          95.1930  105.2263   39.2203 H        66        0    0.0000
    400 H          94.6129  105.4705   37.5765 H        66        0    0.0000
    401 H          92.8215  106.9247   38.2939 H        66        0    0.0000
    402 H          92.9385  106.3912   39.9672 H        66        0    0.0000
    403 C          94.4964  107.8061   39.3836 C.3      67        0    0.0000
    404 C          94.2428  109.0125   38.4729 C.3      67        0    0.0000
    405 H          94.3718  108.0953   40.4345 H        67        0    0.0000
    406 H          95.5321  107.4618   39.2723 H        67        0    0.0000
    407 H          93.9662  108.6729   37.4671 H        67        0    0.0000
    408 H          93.3962  109.5983   38.8517 H        67        0    0.0000
    409 C          95.4959  109.9480   38.3635 C.3      68        0    0.0000
    410 C          95.1113  111.4020   38.0687 C.3      68        0    0.0000
    411 H          96.0623  109.8916   39.3014 H        68        0    0.0000
    412 H          96.1548  109.5657   37.5741 H        68        0    0.0000
    413 H          94.7244  111.4887   37.0458 H        68        0    0.0000
    414 H          94.3035  111.7208   38.7391 H        68        0    0.0000
    415 C          96.3229  112.3827   38.2354 C.3      69        0    0.0000
    416 C          95.8726  113.8354   38.4243 C.3      69        0    0.0000
    417 H          96.9231  112.0601   39.0952 H        69        0    0.0000
    418 H          96.9683  112.3007   37.3521 H        69        0    0.0000
    419 H          95.4726  114.2308   37.4824 H        69        0    0.0000
    420 H          95.0582  113.8845   39.1577 H        69        0    0.0000
    421 C          97.0420  114.7622   38.9051 C.3      70        0    0.0000
    422 C          96.5409  116.1300   39.3814 C.3      70        0    0.0000
    423 H          97.5835  114.2571   39.7146 H        70        0    0.0000
    424 H          97.7546  114.8888   38.0806 H        70        0    0.0000
    425 H          96.0655  116.6665   38.5509 H        70        0    0.0000
    426 H          95.7728  116.0011   40.1539 H        70        0    0.0000
    427 C          97.6962  117.0172   39.9607 C.3      71        0    0.0000
    428 C          97.2122  118.4175   40.3533 C.3      71        0    0.0000
    429 H          98.1281  116.5103   40.8325 H        71        0    0.0000
    430 H          98.4946  117.0914   39.2119 H        71        0    0.0000
    431 H          96.2738  118.6502   39.8348 H        71        0    0.0000
    432 H          96.9954  118.4529   41.4281 H        71        0    0.0000
    433 C          98.2660  119.5272   40.0135 C.3      72        0    0.0000
    434 C          97.6701  120.9372   40.0909 C.3      72        0    0.0000
    435 H          99.1107  119.4372   40.7077 H        72        0    0.0000
    436 H          98.6634  119.3415   39.0080 H        72        0    0.0000
    437 H          96.6662  120.9461   39.6487 H        72        0    0.0000
    438 H          97.5553  121.2401   41.1391 H        72        0    0.0000
    439 C          98.5569  121.9983   39.3526 C.3      73        0    0.0000
    440 C          97.9725  123.4119   39.4489 C.3      73        0    0.0000
    441 H          99.5654  121.9780   39.7839 H        73        0    0.0000
    442 H          98.6582  121.7040   38.3006 H        73        0    0.0000
    443 H          97.1503  123.5287   38.7320 H        73        0    0.0000
    444 H          97.5462  123.5755   40.4464 H        73        0    0.0000
    445 C          99.0467  124.5191   39.1705 C.3      74        0    0.0000
    446 C          98.4769  125.9334   39.3262 C.3      74        0    0.0000
    447 H          99.8893  124.3752   39.8582 H        74        0    0.0000
    448 H          99.4412  124.3821   38.1561 H        74        0    0.0000
    449 H          98.8996  126.5956   38.5604 H        74        0    0.0000
    450 H          97.3914  125.9212   39.1679 H        74        0    0.0000
    451 C          98.7745  126.5415   40.7401 C.3      75        0    0.0000
    452 C          98.2878  127.9895   40.8638 C.3      75        0    0.0000
    453 H          98.2930  125.9164   41.5023 H        75        0    0.0000
    454 H          99.8543  126.4903   40.9269 H        75        0    0.0000
    455 H          97.1912  128.0200   40.8531 H        75        0    0.0000
    456 H          98.6054  128.4123   41.8250 H        75        0    0.0000
    457 C          98.8299  128.8993   39.7079 C.3      76        0    0.0000
    458 C          98.1881  130.2911   39.7146 C.3      76        0    0.0000
    459 H          99.9189  128.9867   39.8079 H        76        0    0.0000
    460 H          98.6405  128.4023   38.7484 H        76        0    0.0000
    461 H          97.3539  130.3240   39.0029 H        76        0    0.0000
    462 H          97.7665  130.5061   40.7043 H        76        0    0.0000
    463 C          99.2121  131.4193   39.3455 C.3      77        0    0.0000
    464 C          98.5509  132.7995   39.2632 C.3      77        0    0.0000
    465 H         100.0124  131.4297   40.0959 H        77        0    0.0000
    466 H          99.6826  131.1698   38.3864 H        77        0    0.0000
    467 H          97.7734  132.7986   38.4892 H        77        0    0.0000
    468 H          98.0514  133.0345   40.2113 H        77        0    0.0000
    469 C          99.5832  133.9345   38.9411 C.3      78        0    0.0000
    470 C          98.9402  135.3257   38.9557 C.3      78        0    0.0000
    471 H         100.3985  133.8892   39.6737 H        78        0    0.0000
    472 H         100.0307  133.7372   37.9591 H        78        0    0.0000
    473 H          98.6787  135.6299   37.9346 H        78        0    0.0000
    474 H          98.0038  135.3013   39.5267 H        78        0    0.0000
    475 C          99.8846  136.4101   39.5799 C.3      79        0    0.0000
    476 C          99.1108  137.6328   40.0851 C.3      79        0    0.0000
    477 H         100.4492  135.9556   40.4034 H        79        0    0.0000
    478 H         100.6196  136.7157   38.8250 H        79        0    0.0000
    479 H          98.8854  138.3070   39.2495 H        79        0    0.0000
    480 H          98.1473  137.3204   40.5066 H        79        0    0.0000
    481 C          99.9054  138.4293   41.1767 C.3      80        0    0.0000
    482 C          99.1839  139.7141   41.5987 C.3      80        0    0.0000
    483 H         100.0574  137.7799   42.0477 H        80        0    0.0000
    484 H         100.9016  138.6688   40.7846 H        80        0    0.0000
    485 H          98.9621  140.3278   40.7169 H        80        0    0.0000
    486 H          98.2204  139.4693   42.0626 H        80        0    0.0000
    487 C         100.0288  140.5659   42.6077 C.3      81        0    0.0000
    488 C         100.0130  142.0591   42.2626 C.3      81        0    0.0000
    489 H          99.6344  140.4094   43.6194 H        81        0    0.0000
    490 H         101.0599  140.1912   42.6100 H        81        0    0.0000
    491 H         100.1217  142.1961   41.1796 H        81        0    0.0000
    492 H          99.0474  142.4993   42.5406 H        81        0    0.0000
    493 C         101.1561  142.8487   42.9889 C.3      82        0    0.0000
    494 C         101.3652  144.2458   42.3945 C.3      82        0    0.0000
    495 H         100.9097  142.9266   44.0551 H        82        0    0.0000
    496 H         102.0846  142.2684   42.9217 H        82        0    0.0000
    497 H         101.5208  144.1741   41.3109 H        82        0    0.0000
    498 H         100.4663  144.8567   42.5440 H        82        0    0.0000
    499 C         102.5909  144.9858   43.0331 C.3      83        0    0.0000
    500 C         103.4815  145.6515   41.9783 C.3      83        0    0.0000
    501 H         102.2204  145.7373   43.7413 H        83        0    0.0000
    502 H         103.1749  144.2636   43.6170 H        83        0    0.0000
    503 H         103.6206  144.9776   41.1239 H        83        0    0.0000
    504 H         102.9946  146.5551   41.5909 H        83        0    0.0000
    505 C         104.8887  146.0410   42.5490 C.3      84        0    0.0000
    506 C         105.6769  146.9384   41.5886 C.3      84        0    0.0000
    507 H         104.7516  146.5491   43.5116 H        84        0    0.0000
    508 H         105.4531  145.1231   42.7549 H        84        0    0.0000
    509 H         105.8759  146.4034   40.6517 H        84        0    0.0000
    510 H         105.0824  147.8224   41.3265 H        84        0    0.0000
    511 C         107.0408  147.4101   42.2007 C.3      85        0    0.0000
    512 C         107.5209  148.7349   41.5978 C.3      85        0    0.0000
    513 H         106.9248  147.5113   43.2869 H        85        0    0.0000
    514 H         107.7919  146.6276   42.0356 H        85        0    0.0000
    515 H         107.8793  148.5740   40.5735 H        85        0    0.0000
    516 H         106.6854  149.4427   41.5317 H        85        0    0.0000
    517 C         108.6713  149.3881   42.4389 C.3      86        0    0.0000
    518 C         109.0475  150.7820   41.9244 C.3      86        0    0.0000
    519 H         108.3531  149.4472   43.4871 H        86        0    0.0000
    520 H         109.5473  148.7282   42.4122 H        86        0    0.0000
    521 H         109.8945  150.7110   41.2309 H        86        0    0.0000
    522 H         108.2120  151.2121   41.3583 H        86        0    0.0000
    523 C         109.4274  151.7619   43.0875 C.3      87        0    0.0000
    524 C         109.6301  153.1986   42.5937 C.3      87        0    0.0000
    525 H         108.6360  151.7333   43.8468 H        87        0    0.0000
    526 H         110.3420  151.3981   43.5719 H        87        0    0.0000
    527 H         110.2353  153.7622   43.3145 H        87        0    0.0000
    528 H         110.1869  153.1964   41.6484 H        87        0    0.0000
    529 C         108.2713  153.9500   42.3780 C.3      88        0    0.0000
    530 C         108.4699  155.4489   42.1270 C.3      88        0    0.0000
    531 H         107.7452  153.4932   41.5306 H        88        0    0.0000
    532 H         107.6386  153.7971   43.2611 H        88        0    0.0000
    533 H         109.2399  155.6032   41.3610 H        88        0    0.0000
    534 H         107.5446  155.8908   41.7371 H        88        0    0.0000
    535 C         108.8888  156.2186   43.4269 C.3      89        0    0.0000
    536 C         108.9751  157.7324   43.2032 C.3      89        0    0.0000
    537 H         108.1630  155.9961   44.2189 H        89        0    0.0000
    538 H         109.8571  155.8331   43.7695 H        89        0    0.0000
    539 H         109.4136  157.9429   42.2199 H        89        0    0.0000
    540 H         107.9691  158.1701   43.1999 H        89        0    0.0000
    541 C         109.8336  158.4474   44.3028 C.3      90        0    0.0000
    542 C         109.9811  159.9499   44.0388 C.3      90        0    0.0000
    543 H         109.3648  158.2815   45.2808 H        90        0    0.0000
    544 H         110.8223  157.9737   44.3431 H        90        0    0.0000
    545 H         110.1470  160.1293   42.9693 H        90        0    0.0000
    546 H         109.0536  160.4715   44.3056 H        90        0    0.0000
    547 C         111.1666  160.5816   44.8470 C.3      91        0    0.0000
    548 C         111.2086  162.1083   44.7187 C.3      91        0    0.0000
    549 H         111.0679  160.2952   45.9014 H        91        0    0.0000
    550 H         112.1088  160.1480   44.4896 H        91        0    0.0000
    551 H         111.9237  162.4008   43.9399 H        91        0    0.0000
    552 H         110.2280  162.4865   44.4041 H        91        0    0.0000
    553 C         111.6119  162.8065   46.0630 C.3      92        0    0.0000
    554 C         110.9900  164.2003   46.2031 C.3      92        0    0.0000
    555 H         111.2998  162.1695   46.8999 H        92        0    0.0000
    556 H         112.7057  162.8761   46.1111 H        92        0    0.0000
    557 H         111.7302  164.9040   46.6036 H        92        0    0.0000
    558 H         110.6944  164.5811   45.2176 H        92        0    0.0000
    559 C         109.7344  164.1991   47.1417 C.3      93        0    0.0000
    560 C         109.4054  165.5983   47.6735 C.3      93        0    0.0000
    561 H         108.8782  163.7968   46.5863 H        93        0    0.0000
    562 H         109.9184  163.5126   47.9775 H        93        0    0.0000
    563 H         110.2830  166.0267   48.1734 H        93        0    0.0000
    564 H         109.1585  166.2687   46.8410 H        93        0    0.0000
    565 C         108.2061  165.5834   48.6830 C.3      94        0    0.0000
    566 C         107.7678  166.9959   49.0852 C.3      94        0    0.0000
    567 H         107.3665  165.0446   48.2266 H        94        0    0.0000
    568 H         108.5001  165.0131   49.5729 H        94        0    0.0000
    569 H         108.5893  167.5137   49.5956 H        94        0    0.0000
    570 H         107.5313  167.5854   48.1906 H        94        0    0.0000
    571 C         106.5153  166.9835   50.0277 C.3      95        0    0.0000
    572 C         105.8893  168.3741   50.1803 C.3      95        0    0.0000
    573 H         105.7760  166.2804   49.6243 H        95        0    0.0000
    574 H         106.8153  166.5963   51.0094 H        95        0    0.0000
    575 H         106.5609  169.0286   50.7496 H        95        0    0.0000
    576 H         105.7583  168.8379   49.1947 H        95        0    0.0000
    577 C         104.4995  168.3240   50.9038 C.3      96        0    0.0000
    578 C         103.6551  169.5728   50.6270 C.3      96        0    0.0000
    579 H         103.9619  167.4259   50.5750 H        96        0    0.0000
    580 H         104.6662  168.2141   51.9826 H        96        0    0.0000
    581 H         103.1679  169.9096   51.5504 H        96        0    0.0000
    582 H         104.2990  170.3956   50.2923 H        96        0    0.0000
    583 C         102.5553  169.3173   49.5396 C.3      97        0    0.0000
    584 C         101.8941  170.6163   49.0658 C.3      97        0    0.0000
    585 H         103.0130  168.7964   48.6894 H        97        0    0.0000
    586 H         101.7988  168.6395   49.9541 H        97        0    0.0000
    587 H         101.0916  170.9035   49.7565 H        97        0    0.0000
    588 H         102.6245  171.4348   49.0737 H        97        0    0.0000
    589 C         101.2961  170.4865   47.6225 C.3      98        0    0.0000
    590 C         100.5863  171.7675   47.1705 C.3      98        0    0.0000
    591 H         102.1061  170.2392   46.9251 H        98        0    0.0000
    592 H         100.5960  169.6421   47.6044 H        98        0    0.0000
    593 H         100.0197  172.1982   48.0054 H        98        0    0.0000
    594 H         101.3250  172.5206   46.8694 H        98        0    0.0000
    595 C          99.6069  171.5131   45.9732 C.3      99        0    0.0000
    596 C          98.8133  172.7686   45.5951 C.3      99        0    0.0000
    597 H         100.1866  171.1607   45.1110 H        99        0    0.0000
    598 H          98.9203  170.7015   46.2442 H        99        0    0.0000
    599 H          98.2934  173.1645   46.4763 H        99        0    0.0000
    600 H          99.4959  173.5560   45.2519 H        99        0    0.0000
    601 C          97.7587  172.4883   44.4696 C.3     100        0    0.0000
    602 C          96.9181  173.7268   44.1399 C.3     100        0    0.0000
    603 H          98.2840  172.1402   43.5716 H       100        0    0.0000
    604 H          97.1074  171.6666   44.7921 H       100        0    0.0000
    605 H          96.3984  174.0791   45.0395 H       100        0    0.0000
    606 H          97.5689  174.5463   43.8106 H       100        0    0.0000
    607 C          95.8567  173.4438   43.0214 C.3     101        0    0.0000
    608 C          94.9924  174.6723   42.7167 C.3     101        0    0.0000
    609 H          96.3784  173.1163   42.1136 H       101        0    0.0000
    610 H          95.2224  172.6071   43.3394 H       101        0    0.0000
    611 H          94.4032  174.5014   41.8073 H       101        0    0.0000
    612 H          94.2753  174.8388   43.5301 H       101        0    0.0000
    613 C          95.8508  175.9701   42.5263 C.3     102        0    0.0000
    614 C          94.9828  177.2110   42.2898 C.3     102        0    0.0000
    615 H          96.4774  176.1133   43.4153 H       102        0    0.0000
    616 H          96.5333  175.8217   41.6803 H       102        0    0.0000
    617 H          94.0275  176.9208   41.8352 H       102        0    0.0000
    618 H          94.7434  177.6906   43.2470 H       102        0    0.0000
    619 C          95.6863  178.2599   41.3611 C.3     103        0    0.0000
    620 C          94.8655  179.5455   41.2107 C.3     103        0    0.0000
    621 H          96.6755  178.4915   41.7751 H       103        0    0.0000
    622 H          95.8552  177.8042   40.3775 H       103        0    0.0000
    623 H          93.9271  179.3331   40.6837 H       103        0    0.0000
    624 H          94.5907  179.9341   42.1992 H       103        0    0.0000
    625 C          95.6436  180.6590   40.4284 C.3     104        0    0.0000
    626 C          94.8286  181.9498   40.2911 C.3     104        0    0.0000
    627 H          96.5871  180.8635   40.9493 H       104        0    0.0000
    628 H          95.9087  180.2742   39.4358 H       104        0    0.0000
    629 H          93.8863  181.7458   39.7677 H       104        0    0.0000
    630 H          94.5610  182.3330   41.2836 H       104        0    0.0000
    631 C          95.6082  183.0647   39.5122 C.3     105        0    0.0000
    632 C          94.8313  184.3846   39.4549 C.3     105        0    0.0000
    633 H          96.5800  183.2208   39.9968 H       105        0    0.0000
    634 H          95.8166  182.7064   38.4964 H       105        0    0.0000
    635 H          93.8665  184.2319   38.9555 H       105        0    0.0000
    636 H          94.6085  184.7343   40.4706 H       105        0    0.0000
    637 C          95.6211  185.5063   38.6962 C.3     106        0    0.0000
    638 C          94.7620  186.2072   37.6380 C.3     106        0    0.0000
    639 H          95.9875  186.2373   39.4277 H       106        0    0.0000
    640 H          96.5062  185.0597   38.2266 H       106        0    0.0000
    641 H          94.0443  185.4985   37.2065 H       106        0    0.0000
    642 H          94.1734  187.0085   38.1018 H       106        0    0.0000
    643 C          95.6256  186.8190   36.4816 C.3     107        0    0.0000
    644 C          95.7755  188.3388   36.6103 C.3     107        0    0.0000
    645 H          96.6134  186.3417   36.4875 H       107        0    0.0000
    646 H          95.1597  186.5669   35.5210 H       107        0    0.0000
    647 H          95.0367  188.8447   35.9764 H       107        0    0.0000
    648 H          95.5717  188.6509   37.6421 H       107        0    0.0000
    649 C          97.2084  188.8307   36.2072 C.3     108        0    0.0000
    650 C          97.2822  190.3556   36.0715 C.3     108        0    0.0000
    651 H          97.9261  188.4850   36.9616 H       108        0    0.0000
    652 H          97.4925  188.3546   35.2606 H       108        0    0.0000
    653 H          96.4728  190.7152   35.4241 H       108        0    0.0000
    654 H          97.1359  190.8280   37.0507 H       108        0    0.0000
    655 C          98.6529  190.8336   35.4796 C.3     109        0    0.0000
    656 C          98.6672  192.3386   35.1901 C.3     109        0    0.0000
    657 H          99.4516  190.5791   36.1873 H       109        0    0.0000
    658 H          98.8561  190.2716   34.5597 H       109        0    0.0000
    659 H          97.8059  192.6100   34.5671 H       109        0    0.0000
    660 H          98.5694  192.9027   36.1259 H       109        0    0.0000
    661 C          99.9798  192.7911   34.4622 C.3     110        0    0.0000
    662 C          99.9545  194.2776   34.0896 C.3     110        0    0.0000
    663 H         100.8363  192.5815   35.1149 H       110        0    0.0000
    664 H         100.1133  192.1797   33.5612 H       110        0    0.0000
    665 H          99.0652  194.4991   33.4866 H       110        0    0.0000
    666 H          99.8815  194.8914   34.9959 H       110        0    0.0000
    667 C         101.2297  194.7108   33.2873 C.3     111        0    0.0000
    668 C         101.1440  196.1611   32.7992 C.3     111        0    0.0000
    669 H         102.1112  194.5807   33.9273 H       111        0    0.0000
    670 H         101.3575  194.0335   32.4338 H       111        0    0.0000
    671 H         100.2294  196.3067   32.2112 H       111        0    0.0000
    672 H         101.0796  196.8431   33.6560 H       111        0    0.0000
    673 C         102.3784  196.5667   31.9222 C.3     112        0    0.0000
    674 C         102.2123  197.9538   31.2917 C.3     112        0    0.0000
    675 H         103.2795  196.5432   32.5476 H       112        0    0.0000
    676 H         102.5190  195.8117   31.1387 H       112        0    0.0000
    677 H         103.1269  198.5430   31.4327 H       112        0    0.0000
    678 H         102.0622  197.8593   30.2090 H       112        0    0.0000
    679 C         101.0035  198.7431   31.9025 C.3     113        0    0.0000
    680 C         100.6139  199.9576   31.0526 C.3     113        0    0.0000
    681 H         100.1490  198.0619   31.9991 H       113        0    0.0000
    682 H         101.2673  199.0636   32.9179 H       113        0    0.0000
    683 H         101.0895  200.8629   31.4499 H       113        0    0.0000
    684 H         100.9821  199.8326   30.0268 H       113        0    0.0000
    685 C          99.0626  200.1793   31.0092 C.3     114        0    0.0000
    686 C          98.6791  201.4538   30.2491 C.3     114        0    0.0000
    687 H          98.5936  199.3058   30.5396 H       114        0    0.0000
    688 H          98.6832  200.2260   32.0375 H       114        0    0.0000
    689 H          97.9177  201.2260   29.4929 H       114        0    0.0000
    690 H          98.2319  202.1819   30.9372 H       114        0    0.0000
    691 C          99.9109  202.1172   29.5421 C.3     115        0    0.0000
    692 C          99.5669  203.4822   28.9357 C.3     115        0    0.0000
    693 H         100.7226  202.2239   30.2723 H       115        0    0.0000
    694 H         100.2772  201.4400   28.7606 H       115        0    0.0000
    695 H          98.7795  203.3703   28.1800 H       115        0    0.0000
    696 H          99.1675  204.1481   29.7106 H       115        0    0.0000
    697 C         100.8106  204.1679   28.2719 C.3     116        0    0.0000
    698 C         100.4812  205.5594   27.7205 C.3     116        0    0.0000
    699 H         101.6142  204.2384   29.0154 H       116        0    0.0000
    700 H         101.1823  203.5224   27.4665 H       116        0    0.0000
    701 H          99.6884  205.4869   26.9657 H       116        0    0.0000
    702 H         100.0947  206.2002   28.5228 H       116        0    0.0000
    703 C         101.7301  206.2542   27.0764 C.3     117        0    0.0000
    704 C         101.9066  207.6973   27.5613 C.3     117        0    0.0000
    705 H         102.6245  205.6652   27.3147 H       117        0    0.0000
    706 H         101.6218  206.2347   25.9848 H       117        0    0.0000
    707 H         101.3270  208.3804   26.9281 H       117        0    0.0000
    708 H         101.5136  207.8025   28.5802 H       117        0    0.0000
    709 C         103.4078  208.1486   27.5497 C.3     118        0    0.0000
    710 C         103.7736  208.9167   26.2749 C.3     118        0    0.0000
    711 H         103.5962  208.7728   28.4321 H       118        0    0.0000
    712 H         104.0447  207.2610   27.6499 H       118        0    0.0000
    713 H         103.0492  208.6951   25.4813 H       118        0    0.0000
    714 H         103.7196  209.9970   26.4580 H       118        0    0.0000
    715 C         105.2113  208.5627   25.7599 C.3     119        0    0.0000
    716 C         105.4024  208.9177   24.2812 C.3     119        0    0.0000
    717 H         105.9479  209.0965   26.3731 H       119        0    0.0000
    718 H         105.3888  207.4914   25.9156 H       119        0    0.0000
    719 H         104.7243  208.3193   23.6601 H       119        0    0.0000
    720 H         105.1410  209.9693   24.1100 H       119        0    0.0000
    721 C         106.8743  208.6777   23.7980 C.3     120        0    0.0000
    722 C         107.4136  209.8518   22.9736 C.3     120        0    0.0000
    723 H         107.5114  208.5099   24.6752 H       120        0    0.0000
    724 H         106.9058  207.7555   23.2047 H       120        0    0.0000
    725 H         107.0735  209.7690   21.9339 H       120        0    0.0000
    726 H         107.0154  210.7978   23.3610 H       120        0    0.0000
    727 C         108.9797  209.9188   22.9891 C.3     121        0    0.0000
    728 C         109.5205  211.0685   22.1320 C.3     121        0    0.0000
    729 H         109.3186  210.0312   24.0264 H       121        0    0.0000
    730 H         109.3781  208.9619   22.6295 H       121        0    0.0000
    731 H         109.1732  210.9617   21.0968 H       121        0    0.0000
    732 H         109.1302  212.0263   22.4979 H       121        0    0.0000
    733 C         111.0870  211.1267   22.1359 C.3     122        0    0.0000
    734 C         111.6271  212.2926   21.3004 C.3     122        0    0.0000
    735 H         111.4351  211.2139   23.1726 H       122        0    0.0000
    736 H         111.4771  210.1760   21.7515 H       122        0    0.0000
    737 H         111.2881  212.1994   20.2612 H       122        0    0.0000
    738 H         111.2283  213.2423   21.6779 H       122        0    0.0000
    739 C         113.1932  212.3600   21.3169 C.3     123        0    0.0000
    740 C         113.7299  213.5835   20.5660 C.3     123        0    0.0000
    741 H         113.5354  212.3783   22.3591 H       123        0    0.0000
    742 H         113.5914  211.4402   20.8707 H       123        0    0.0000
    743 H         113.3713  213.5757   19.5292 H       123        0    0.0000
    744 H         113.3476  214.5039   21.0247 H       123        0    0.0000
    745 C         115.2966  213.6358   20.5584 C.3     124        0    0.0000
    746 C         115.8362  214.7498   19.6545 C.3     124        0    0.0000
    747 H         115.6506  213.7811   21.5865 H       124        0    0.0000
    748 H         115.6813  212.6632   20.2272 H       124        0    0.0000
    749 H         116.6221  215.3099   20.1762 H       124        0    0.0000
    750 H         116.2995  214.3166   18.7593 H       124        0    0.0000
    751 C         114.7139  215.7495   19.2092 C.3     125        0    0.0000
    752 C         115.2590  217.1594   18.9559 C.3     125        0    0.0000
    753 H         114.2355  215.3624   18.3010 H       125        0    0.0000
    754 H         113.9389  215.7796   19.9851 H       125        0    0.0000
    755 H         116.0081  217.1347   18.1548 H       125        0    0.0000
    756 H         114.4521  217.8186   18.6125 H       125        0    0.0000
    757 C         115.9103  217.7837   20.2379 C.3     126        0    0.0000
    758 C         115.3889  219.1960   20.5253 C.3     126        0    0.0000
    759 H         115.7082  217.1268   21.0929 H       126        0    0.0000
    760 H         116.9994  217.8042   20.1069 H       126        0    0.0000
    761 H         116.1714  219.7950   21.0072 H       126        0    0.0000
    762 H         115.1381  219.7029   19.5853 H       126        0    0.0000
    763 C         114.1211  219.1850   21.4473 C.3     127        0    0.0000
    764 C         114.2653  220.1311   22.6444 C.3     127        0    0.0000
    765 H         113.2460  219.4665   20.8486 H       127        0    0.0000
    766 H         113.9470  218.1598   21.7969 H       127        0    0.0000
    767 H         115.0395  220.8810   22.4401 H       127        0    0.0000
    768 H         113.3292  220.6804   22.8046 H       127        0    0.0000
    769 C         114.6358  219.3686   23.9630 C.3     128        0    0.0000
    770 C         113.6248  219.6252   25.0860 C.3     128        0    0.0000
    771 H         114.6929  218.2947   23.7464 H       128        0    0.0000
    772 H         115.6386  219.6795   24.2814 H       128        0    0.0000
    773 H         114.1499  219.7818   26.0364 H       128        0    0.0000
    774 H         113.0614  220.5443   24.8822 H       128        0    0.0000
    775 C         112.6132  218.4399   25.2570 C.3     129        0    0.0000
    776 C         112.6814  217.8152   26.6549 C.3     129        0    0.0000
    777 H         111.5993  218.8089   25.0589 H       129        0    0.0000
    778 H         112.8265  217.6803   24.4947 H       129        0    0.0000
    779 H         113.1397  218.5199   27.3599 H       129        0    0.0000
    780 H         111.6691  217.6120   27.0259 H       129        0    0.0000
    781 C         113.5024  216.4799   26.6696 C.3     130        0    0.0000
    782 C         112.7526  215.3447   27.3755 C.3     130        0    0.0000
    783 H         113.7308  216.1938   25.6354 H       130        0    0.0000
    784 H         114.4638  216.6613   27.1659 H       130        0    0.0000
    785 H         113.0105  215.3295   28.4416 H       130        0    0.0000
    786 H         111.6704  215.5144   27.3155 H       130        0    0.0000
    787 C         113.0792  213.9419   26.7565 C.3     131        0    0.0000
    788 C         112.6531  212.7894   27.6726 C.3     131        0    0.0000
    789 H         112.5744  213.8575   25.7861 H       131        0    0.0000
    790 H         114.1565  213.8855   26.5572 H       131        0    0.0000
    791 H         113.0127  212.9678   28.6936 H       131        0    0.0000
    792 H         111.5587  212.7382   27.7285 H       131        0    0.0000
    793 C         113.1993  211.4053   27.1792 C.3     132        0    0.0000
    794 C         112.9930  210.2962   28.2167 C.3     132        0    0.0000
    795 H         112.6962  211.1408   26.2408 H       132        0    0.0000
    796 H         114.2663  211.5089   26.9463 H       132        0    0.0000
    797 H         113.4084  210.6042   29.1842 H       132        0    0.0000
    798 H         111.9212  210.1235   28.3747 H       132        0    0.0000
    799 C         113.6640  208.9468   27.7852 C.3     133        0    0.0000
    800 C         113.5220  207.8591   28.8557 C.3     133        0    0.0000
    801 H         113.2096  208.6107   26.8449 H       133        0    0.0000
    802 H         114.7248  209.1309   27.5744 H       133        0    0.0000
    803 H         113.9244  208.2172   29.8114 H       133        0    0.0000
    804 H         112.4617  207.6339   29.0248 H       133        0    0.0000
    805 C         114.2628  206.5355   28.4597 C.3     134        0    0.0000
    806 C         114.1549  205.4616   29.5479 C.3     134        0    0.0000
    807 H         113.8400  206.1616   27.5189 H       134        0    0.0000
    808 H         115.3169  206.7659   28.2617 H       134        0    0.0000
    809 H         113.1274  205.0805   29.5997 H       134        0    0.0000
    810 H         114.7957  204.6070   29.2978 H       134        0    0.0000
    811 C         114.5644  206.0040   30.9605 C.3     135        0    0.0000
    812 C         114.1410  205.0592   32.0906 C.3     135        0    0.0000
    813 H         115.6512  206.1518   30.9811 H       135        0    0.0000
    814 H         114.1093  206.9917   31.1056 H       135        0    0.0000
    815 H         113.9690  204.0511   31.6935 H       135        0    0.0000
    816 H         114.9464  204.9731   32.8305 H       135        0    0.0000
    817 C         112.8389  205.5458   32.8154 C.3     136        0    0.0000
    818 C         112.8565  205.2303   34.3151 C.3     136        0    0.0000
    819 H         112.7302  206.6263   32.6595 H       136        0    0.0000
    820 H         111.9715  205.0703   32.3410 H       136        0    0.0000
    821 H         112.6318  204.1691   34.4789 H       136        0    0.0000
    822 H         113.8586  205.4072   34.7250 H       136        0    0.0000
    823 C         111.8230  206.0950   35.1162 C.3     137        0    0.0000
    824 C         111.7324  205.6764   36.5878 C.3     137        0    0.0000
    825 H         112.1127  207.1506   35.0425 H       137        0    0.0000
    826 H         110.8398  206.0041   34.6380 H       137        0    0.0000
    827 H         111.5441  204.5982   36.6612 H       137        0    0.0000
    828 H         112.6886  205.8643   37.0919 H       137        0    0.0000
    829 C         110.5984  206.4407   37.3542 C.3     138        0    0.0000
    830 C         110.3380  205.8513   38.7448 C.3     138        0    0.0000
    831 H         110.8801  207.4975   37.4403 H       138        0    0.0000
    832 H         109.6810  206.4071   36.7535 H       138        0    0.0000
    833 H         111.2245  205.9769   39.3786 H       138        0    0.0000
    834 H         109.5202  206.3931   39.2359 H       138        0    0.0000
    835 C         109.9711  204.3283   38.6853 C.3     139        0    0.0000
    836 C         109.7217  203.7361   40.0767 C.3     139        0    0.0000
    837 H         109.0797  204.2036   38.0581 H       139        0    0.0000
    838 H         110.7853  203.7877   38.1868 H       139        0    0.0000
    839 H         109.3001  202.7274   39.9862 H       139        0    0.0000
    840 H         110.6707  203.6336   40.6176 H       139        0    0.0000
    841 C         108.7460  204.6168   40.9310 C.3     140        0    0.0000
    842 C         108.7550  204.2238   42.4124 C.3     140        0    0.0000
    843 H         109.0311  205.6703   40.8196 H       140        0    0.0000
    844 H         107.7325  204.5198   40.5223 H       140        0    0.0000
    845 H         109.3585  204.9372   42.9872 H       140        0    0.0000
    846 H         107.7378  204.2712   42.8204 H       140        0    0.0000
    847 C         109.3243  202.7812   42.6409 C.3     141        0    0.0000
    848 C         109.2102  202.3365   44.1031 C.3     141        0    0.0000
    849 H         108.7843  202.0810   41.9915 H       141        0    0.0000
    850 H         110.3739  202.7607   42.3223 H       141        0    0.0000
    851 H         109.5404  201.2955   44.2066 H       141        0    0.0000
    852 H         109.8738  202.9416   44.7332 H       141        0    0.0000
    853 C         107.7456  202.4586   44.6486 C.3     142        0    0.0000
    854 C         107.6379  202.0470   46.1210 C.3     142        0    0.0000
    855 H         107.4062  203.4942   44.5218 H       142        0    0.0000
    856 H         107.0861  201.8335   44.0340 H       142        0    0.0000
    857 H         108.0751  202.8230   46.7615 H       142        0    0.0000
    858 H         106.5835  201.9569   46.4103 H       142        0    0.0000
    859 C         108.3597  200.6861   46.4117 C.3     143        0    0.0000
    860 C         108.6819  200.5056   47.8992 C.3     143        0    0.0000
    861 H         107.7207  199.8654   46.0630 H       143        0    0.0000
    862 H         109.2817  200.6411   45.8190 H       143        0    0.0000
    863 H         109.0395  201.4517   48.3241 H       143        0    0.0000
    864 H         107.7728  200.2361   48.4510 H       143        0    0.0000
    865 C         109.7668  199.4005   48.1423 C.3     144        0    0.0000
    866 C         109.9641  199.0978   49.6317 C.3     144        0    0.0000
    867 H         109.4686  198.4890   47.6095 H       144        0    0.0000
    868 H         110.7135  199.7303   47.6968 H       144        0    0.0000
    869 H         110.7830  199.7070   50.0341 H       144        0    0.0000
    870 H         109.0625  199.3711   50.1938 H       144        0    0.0000
    871 C         110.2837  197.5856   49.8935 C.3     145        0    0.0000
    872 C         110.3930  197.2653   51.3883 C.3     145        0    0.0000
    873 H         109.4977  196.9734   49.4341 H       145        0    0.0000
    874 H         111.2209  197.3289   49.3843 H       145        0    0.0000
    875 H         111.3199  197.6868   51.7965 H       145        0    0.0000
    876 H         109.5658  197.7348   51.9351 H       145        0    0.0000
    877 C         110.3729  195.7230   51.6685 C.3     146        0    0.0000
    878 C         109.8178  195.3923   53.0582 C.3     146        0    0.0000
    879 H         109.7696  195.2310   50.8955 H       146        0    0.0000
    880 H         111.3931  195.3321   51.5681 H       146        0    0.0000
    881 H         110.5067  195.7502   53.8334 H       146        0    0.0000
    882 H         108.8661  195.9143   53.2171 H       146        0    0.0000
    883 C         109.5896  193.8540   53.2562 C.3     147        0    0.0000
    884 C         109.6014  193.4506   54.7347 C.3     147        0    0.0000
    885 H         108.6320  193.5769   52.7982 H       147        0    0.0000
    886 H         110.3693  193.3079   52.7110 H       147        0    0.0000
    887 H         110.5352  193.7799   55.2071 H       147        0    0.0000
    888 H         108.7845  193.9524   55.2681 H       147        0    0.0000
    889 C         109.4556  191.9019   54.9292 C.3     148        0    0.0000
    890 C         109.3321  191.5110   56.4060 C.3     148        0    0.0000
    891 H         108.5744  191.5572   54.3739 H       148        0    0.0000
    892 H         110.3249  191.4058   54.4801 H       148        0    0.0000
    893 H         110.2157  191.8510   56.9602 H       148        0    0.0000
    894 H         108.4659  192.0112   56.8564 H       148        0    0.0000
    895 C         109.1789  189.9630   56.6000 C.3     149        0    0.0000
    896 C         109.2122  189.5566   58.0774 C.3     149        0    0.0000
    897 H         108.2352  189.6410   56.1424 H       149        0    0.0000
    898 H         109.9834  189.4566   56.0523 H       149        0    0.0000
    899 H         110.1226  189.9418   58.5530 H       149        0    0.0000
    900 H         108.3645  190.0051   58.6101 H       149        0    0.0000
    901 C         109.1623  188.0013   58.2670 C.3     150        0    0.0000
    902 C         109.3942  187.5860   59.7240 C.3     150        0    0.0000
    903 H         108.1878  187.6340   57.9218 H       150        0    0.0000
    904 H         109.9195  187.5417   57.6198 H       150        0    0.0000
    905 H         110.0885  188.2840   60.2081 H       150        0    0.0000
    906 H         108.4527  187.6386   60.2846 H       150        0    0.0000
    907 C         109.9727  186.1339   59.8430 C.3     151        0    0.0000
    908 C         110.3507  185.7755   61.2844 C.3     151        0    0.0000
    909 H         109.2279  185.4243   59.4619 H       151        0    0.0000
    910 H         110.8513  186.0487   59.1915 H       151        0    0.0000
    911 H         110.6258  186.6820   61.8376 H       151        0    0.0000
    912 H         109.4872  185.3402   61.8026 H       151        0    0.0000
    913 C         111.5440  184.7611   61.3510 C.3     152        0    0.0000
    914 C         112.1648  184.6857   62.7503 C.3     152        0    0.0000
    915 H         111.1839  183.7709   61.0455 H       152        0    0.0000
    916 H         112.3036  185.0601   60.6181 H       152        0    0.0000
    917 H         112.3906  185.6949   63.1165 H       152        0    0.0000
    918 H         111.4489  184.2471   63.4564 H       152        0    0.0000
    919 C         113.4811  183.8345   62.7711 C.3     153        0    0.0000
    920 C         114.5933  184.5046   63.5854 C.3     153        0    0.0000
    921 H         113.2554  182.8444   63.1862 H       153        0    0.0000
    922 H         113.8151  183.6745   61.7384 H       153        0    0.0000
    923 H         114.5090  185.5958   63.5106 H       153        0    0.0000
    924 H         114.4860  184.2524   64.6476 H       153        0    0.0000
    925 C         116.0224  184.0742   63.1058 C.3     154        0    0.0000
    926 C         116.6568  183.0317   64.0331 C.3     154        0    0.0000
    927 H         115.9481  183.6753   62.0865 H       154        0    0.0000
    928 H         116.6599  184.9653   63.0497 H       154        0    0.0000
    929 H         117.7145  183.2706   64.1998 H       154        0    0.0000
    930 H         116.1696  183.0562   65.0157 H       154        0    0.0000
    931 C         116.5522  181.5789   63.4534 C.3     155        0    0.0000
    932 C         117.9207  180.8979   63.3423 C.3     155        0    0.0000
    933 H         115.8892  180.9881   64.0975 H       155        0    0.0000
    934 H         116.0739  181.6254   62.4671 H       155        0    0.0000
    935 H         118.7172  181.6523   63.3404 H       155        0    0.0000
    936 H         118.0947  180.2583   64.2165 H       155        0    0.0000
    937 C         118.0471  180.0264   62.0454 C.3     156        0    0.0000
    938 C         119.4315  179.3827   61.9108 C.3     156        0    0.0000
    939 H         117.2717  179.2505   62.0638 H       156        0    0.0000
    940 H         117.8397  180.6584   61.1730 H       156        0    0.0000
    941 H         120.2014  180.1599   61.8290 H       156        0    0.0000
    942 H         119.6652  178.8014   62.8114 H       156        0    0.0000
    943 C         119.5297  178.4406   60.6617 C.3     157        0    0.0000
    944 C         120.8899  177.7405   60.5677 C.3     157        0    0.0000
    945 H         118.7262  177.6957   60.7165 H       157        0    0.0000
    946 H         119.3484  179.0334   59.7566 H       157        0    0.0000
    947 H         121.6933  178.4855   60.5118 H       157        0    0.0000
    948 H         121.0716  177.1485   61.4732 H       157        0    0.0000
    949 C         120.9877  176.7974   59.3193 C.3     158        0    0.0000
    950 C         122.3867  176.1931   59.1560 C.3     158        0    0.0000
    951 H         120.2424  175.9987   59.4203 H       158        0    0.0000
    952 H         120.7177  177.3687   58.4225 H       158        0    0.0000
    953 H         123.1375  176.9913   59.1043 H       158        0    0.0000
    954 H         122.6368  175.5815   60.0318 H       158        0    0.0000
    955 C         122.5038  175.3050   57.8695 C.3     159        0    0.0000
    956 C         123.9004  174.6941   57.7106 C.3     159        0    0.0000
    957 H         121.7489  174.5105   57.9184 H       159        0    0.0000
    958 H         122.2594  175.9182   56.9932 H       159        0    0.0000
    959 H         124.6543  175.4889   57.6528 H       159        0    0.0000
    960 H         124.1483  174.0882   58.5909 H       159        0    0.0000
    961 C         124.0138  173.7960   56.4308 C.3     160        0    0.0000
    962 C         125.4099  173.1835   56.2729 C.3     160        0    0.0000
    963 H         123.2590  173.0020   56.4879 H       160        0    0.0000
    964 H         123.7673  174.4023   55.5503 H       160        0    0.0000
    965 H         126.0396  173.8365   55.6561 H       160        0    0.0000
    966 H         125.8996  173.1062   57.2515 H       160        0    0.0000
    967 C         125.3635  171.7603   55.6173 C.3     161        0    0.0000
    968 C         126.7598  171.1490   55.4566 C.3     161        0    0.0000
    969 H         124.7356  171.1066   56.2352 H       161        0    0.0000
    970 H         124.8717  171.8371   54.6396 H       161        0    0.0000
    971 H         127.3715  171.7767   54.7967 H       161        0    0.0000
    972 H         127.2715  171.1195   56.4266 H       161        0    0.0000
    973 C         126.7086  169.6970   54.8680 C.3     162        0    0.0000
    974 C         127.6531  169.5205   53.6739 C.3     162        0    0.0000
    975 H         126.9677  168.9846   55.6611 H       162        0    0.0000
    976 H         125.6773  169.4732   54.5681 H       162        0    0.0000
    977 H         127.7616  170.4707   53.1365 H       162        0    0.0000
    978 H         128.6543  169.2408   54.0245 H       162        0    0.0000
    979 C         127.1453  168.4279   52.6711 C.3     163        0    0.0000
    980 C         127.3235  168.8533   51.2094 C.3     163        0    0.0000
    981 H         127.6894  167.4942   52.8601 H       163        0    0.0000
    982 H         126.0873  168.2233   52.8770 H       163        0    0.0000
    983 H         127.4245  169.9438   51.1447 H       163        0    0.0000
    984 H         128.2490  168.4265   50.8036 H       163        0    0.0000
    985 C         126.1220  168.4029   50.3089 C.3     164        0    0.0000
    986 C         126.4840  167.2170   49.4079 C.3     164        0    0.0000
    987 H         125.2751  168.1398   50.9548 H       164        0    0.0000
    988 H         125.7992  169.2549   49.6977 H       164        0    0.0000
    989 H         126.9331  167.5774   48.4741 H       164        0    0.0000
    990 H         127.2379  166.5886   49.8981 H       164        0    0.0000
    991 C         125.2372  166.3325   49.0605 C.3     165        0    0.0000
    992 C         125.3706  165.6518   47.6938 C.3     165        0    0.0000
    993 H         125.1095  165.5773   49.8460 H       165        0    0.0000
    994 H         124.3397  166.9630   49.0807 H       165        0    0.0000
    995 H         125.7557  166.3649   46.9544 H       165        0    0.0000
    996 H         126.0986  164.8331   47.7508 H       165        0    0.0000
    997 C         124.0050  165.0788   47.1796 C.3     166        0    0.0000
    998 C         124.0687  164.6595   45.7068 C.3     166        0    0.0000
    999 H         123.7243  164.2210   47.8032 H       166        0    0.0000
   1000 H         123.2269  165.8391   47.3209 H       166        0    0.0000
   1001 H         124.3909  165.5062   45.0882 H       166        0    0.0000
   1002 H         124.8173  163.8687   45.5729 H       166        0    0.0000
   1003 C         122.6872  164.1426   45.1760 C.3     167        0    0.0000
   1004 C         122.8261  163.3482   43.8727 C.3     167        0    0.0000
   1005 H         122.2224  163.5185   45.9493 H       167        0    0.0000
   1006 H         122.0229  165.0023   45.0236 H       167        0    0.0000
   1007 H         122.9602  164.0337   43.0268 H       167        0    0.0000
   1008 H         123.7220  162.7161   43.9111 H       167        0    0.0000
   1009 C         121.5787  162.4403   43.5945 C.3     168        0    0.0000
   1010 C         121.9703  161.0777   43.0123 C.3     168        0    0.0000
   1011 H         121.0247  162.3039   44.5315 H       168        0    0.0000
   1012 H         120.9063  162.9651   42.9045 H       168        0    0.0000
   1013 H         121.2852  160.8048   42.2001 H       168        0    0.0000
   1014 H         122.9742  161.1308   42.5731 H       168        0    0.0000
   1015 C         121.9508  159.9422   44.0929 C.3     169        0    0.0000
   1016 C         121.9173  158.5441   43.4657 C.3     169        0    0.0000
   1017 H         122.8365  160.0468   44.7317 H       169        0    0.0000
   1018 H         121.0767  160.0851   44.7402 H       169        0    0.0000
   1019 H         121.1652  158.5076   42.6680 H       169        0    0.0000
   1020 H         122.8837  158.3184   42.9981 H       169        0    0.0000
   1021 C         121.5924  157.4285   44.5180 C.3     170        0    0.0000
   1022 C         120.5982  156.3938   43.9795 C.3     170        0    0.0000
   1023 H         122.5275  156.9350   44.8104 H       170        0    0.0000
   1024 H         121.1899  157.9018   45.4222 H       170        0    0.0000
   1025 H         120.0417  156.8126   43.1319 H       170        0    0.0000
   1026 H         121.1368  155.5166   43.6001 H       170        0    0.0000
   1027 C         119.5769  155.9259   45.0729 C.3     171        0    0.0000
   1028 C         118.2266  155.5213   44.4712 C.3     171        0    0.0000
   1029 H         120.0109  155.0826   45.6243 H       171        0    0.0000
   1030 H         119.4378  156.7379   45.7974 H       171        0    0.0000
   1031 H         117.8578  156.3136   43.8080 H       171        0    0.0000
   1032 H         118.3442  154.6225   43.8533 H       171        0    0.0000
   1033 C         117.1462  155.2401   45.5718 C.3     172        0    0.0000
   1034 C         115.8658  154.6335   44.9872 C.3     172        0    0.0000
   1035 H         117.5740  154.5641   46.3226 H       172        0    0.0000
   1036 H         116.9153  156.1796   46.0889 H       172        0    0.0000
   1037 H         115.1555  154.4069   45.7920 H       172        0    0.0000
   1038 H         115.3735  155.3584   44.3272 H       172        0    0.0000
   1039 C         116.1464  153.3213   44.1767 C.3     173        0    0.0000
   1040 C         114.8710  152.7343   43.5620 C.3     173        0    0.0000
   1041 H         116.8767  153.5420   43.3883 H       173        0    0.0000
   1042 H         116.6150  152.5871   44.8436 H       173        0    0.0000
   1043 H         113.9889  153.1118   44.0940 H       173        0    0.0000
   1044 H         114.7724  153.0587   42.5187 H       173        0    0.0000
   1045 C         114.8563  151.1674   43.6075 C.3     174        0    0.0000
   1046 C         113.9825  150.5624   42.5032 C.3     174        0    0.0000
   1047 H         115.8863  150.8013   43.5152 H       174        0    0.0000
   1048 H         114.4946  150.8456   44.5920 H       174        0    0.0000
   1049 H         113.2690  151.3105   42.1358 H       174        0    0.0000
   1050 H         114.6048  150.2736   41.6471 H       174        0    0.0000
   1051 C         113.1871  149.3050   42.9968 C.3     175        0    0.0000
   1052 C         113.2593  148.1436   41.9993 C.3     175        0    0.0000
   1053 H         113.5885  148.9918   43.9686 H       175        0    0.0000
   1054 H         112.1417  149.5917   43.1654 H       175        0    0.0000
   1055 H         112.5140  148.2820   41.2063 H       175        0    0.0000
   1056 H         114.2411  148.1286   41.5099 H       175        0    0.0000
   1057 C         113.0154  146.7553   42.6853 C.3     176        0    0.0000
   1058 C         113.9383  145.6638   42.1320 C.3     176        0    0.0000
   1059 H         113.1670  146.8636   43.7664 H       176        0    0.0000
   1060 H         111.9661  146.4692   42.5414 H       176        0    0.0000
   1061 H         113.5846  145.3362   41.1466 H       176        0    0.0000
   1062 H         114.9493  146.0641   41.9867 H       176        0    0.0000
   1063 C         114.0195  144.4178   43.0797 C.3     177        0    0.0000
   1064 C         113.4605  143.1509   42.4228 C.3     177        0    0.0000
   1065 H         115.0661  144.2611   43.3689 H       177        0    0.0000
   1066 H         113.4675  144.6383   44.0018 H       177        0    0.0000
   1067 H         112.6374  143.4103   41.7454 H       177        0    0.0000
   1068 H         114.2342  142.6724   41.8096 H       177        0    0.0000
   1069 C         112.9394  142.1151   43.4777 C.3     178        0    0.0000
   1070 C         113.6679  140.7701   43.3801 C.3     178        0    0.0000
   1071 H         113.0653  142.5391   44.4817 H       178        0    0.0000
   1072 H         111.8620  141.9709   43.3295 H       178        0    0.0000
   1073 H         113.2851  140.1960   42.5272 H       178        0    0.0000
   1074 H         114.7368  140.9339   43.1954 H       178        0    0.0000
   1075 C         113.5057  139.9109   44.6812 C.3     179        0    0.0000
   1076 C         112.7819  138.5862   44.4160 C.3     179        0    0.0000
   1077 H         114.4996  139.7184   45.1040 H       179        0    0.0000
   1078 H         112.9547  140.4980   45.4263 H       179        0    0.0000
   1079 H         112.0938  138.6966   43.5687 H       179        0    0.0000
   1080 H         113.5061  137.8115   44.1349 H       179        0    0.0000
   1081 C         111.9718  138.0917   45.6637 C.3     180        0    0.0000
   1082 C         111.0701  136.8969   45.3344 C.3     180        0    0.0000
   1083 H         112.6774  137.8224   46.4594 H       180        0    0.0000
   1084 H         111.3684  138.9242   46.0461 H       180        0    0.0000
   1085 H         110.4595  137.1187   44.4504 H       180        0    0.0000
   1086 H         111.6821  136.0217   45.0831 H       180        0    0.0000
   1087 C         110.1199  136.5240   46.5242 C.3     181        0    0.0000
   1088 C         109.1563  135.3879   46.1639 C.3     181        0    0.0000
   1089 H         110.7315  136.2384   47.3891 H       181        0    0.0000
   1090 H         109.5551  137.4171   46.8189 H       181        0    0.0000
   1091 H         109.2138  134.5927   46.9175 H       181        0    0.0000
   1092 H         108.1224  135.7549   46.1715 H       181        0    0.0000
   1093 C         109.4637  134.7724   44.7554 C.3     182        0    0.0000
   1094 C         108.3043  133.9197   44.2285 C.3     182        0    0.0000
   1095 H         109.6809  135.5870   44.0533 H       182        0    0.0000
   1096 H         110.3751  134.1658   44.8258 H       182        0    0.0000
   1097 H         108.3783  132.8988   44.6234 H       182        0    0.0000
   1098 H         107.3481  134.3254   44.5816 H       182        0    0.0000
   1099 C         108.2781  133.8549   42.6624 C.3     183        0    0.0000
   1100 C         106.9671  133.2687   42.1271 C.3     183        0    0.0000
   1101 H         108.4284  134.8661   42.2642 H       183        0    0.0000
   1102 H         109.1278  133.2517   42.3192 H       183        0    0.0000
   1103 H         106.9009  132.2030   42.3793 H       183        0    0.0000
   1104 H         106.1117  133.7598   42.6072 H       183        0    0.0000
   1105 C         106.8352  133.4292   40.5733 C.3     184        0    0.0000
   1106 C         105.3885  133.2690   40.0935 C.3     184        0    0.0000
   1107 H         107.2198  134.4156   40.2858 H       184        0    0.0000
   1108 H         107.4779  132.6861   40.0852 H       184        0    0.0000
   1109 H         105.3404  133.3716   39.0024 H       184        0    0.0000
   1110 H         105.0225  132.2625   40.3317 H       184        0    0.0000
   1111 C         104.4269  134.3230   40.7431 C.3     185        0    0.0000
   1112 C         103.8485  135.2960   39.7097 C.3     185        0    0.0000
   1113 H         103.6151  133.7924   41.2558 H       185        0    0.0000
   1114 H         104.9777  134.8764   41.5138 H       185        0    0.0000
   1115 H         103.4401  136.1808   40.2135 H       185        0    0.0000
   1116 H         104.6431  135.6522   39.0424 H       185        0    0.0000
   1117 C         102.7178  134.6405   38.8441 C.3     186        0    0.0000
   1118 C         102.9926  134.7621   37.3412 C.3     186        0    0.0000
   1119 H         102.6249  133.5841   39.1253 H       186        0    0.0000
   1120 H         101.7615  135.1177   39.0915 H       186        0    0.0000
   1121 H         102.7418  135.7719   36.9935 H       186        0    0.0000
   1122 H         104.0614  134.6163   37.1412 H       186        0    0.0000
   1123 C         102.1748  133.7210   36.5016 C.3     187        0    0.0000
   1124 C         103.0015  133.1165   35.3614 C.3     187        0    0.0000
   1125 H         101.8203  132.9273   37.1709 H       187        0    0.0000
   1126 H         101.2822  134.2150   36.0982 H       187        0    0.0000
   1127 H         102.3946  133.0524   34.4497 H       187        0    0.0000
   1128 H         103.8530  133.7677   35.1279 H       187        0    0.0000
   1129 C         103.5401  131.6865   35.7114 C.3     188        0    0.0000
   1130 C         103.1040  130.6345   34.6857 C.3     188        0    0.0000
   1131 H         104.6351  131.7253   35.7683 H       188        0    0.0000
   1132 H         103.1824  131.4087   36.7106 H       188        0    0.0000
   1133 H         103.0306  131.0881   33.6896 H       188        0    0.0000
   1134 H         103.8590  129.8416   34.6159 H       188        0    0.0000
   1135 C         101.7234  129.9870   35.0491 C.3     189        0    0.0000
   1136 C         101.7584  128.4572   34.9623 C.3     189        0    0.0000
   1137 H         101.4418  130.2999   36.0622 H       189        0    0.0000
   1138 H         100.9572  130.3848   34.3721 H       189        0    0.0000
   1139 H         101.3656  128.1264   33.9929 H       189        0    0.0000
   1140 H         102.7943  128.1008   35.0207 H       189        0    0.0000
   1141 C         100.9253  127.7782   36.1035 C.3     190        0    0.0000
   1142 C         101.8101  127.2833   37.2529 C.3     190        0    0.0000
   1143 H         100.1880  128.4983   36.4795 H       190        0    0.0000
   1144 H         100.3588  126.9408   35.6774 H       190        0    0.0000
   1145 H         101.3852  126.3705   37.6886 H       190        0    0.0000
   1146 H         102.8050  127.0182   36.8745 H       190        0    0.0000
   1147 C         101.9693  128.3565   38.3845 C.3     191        0    0.0000
   1148 C         103.4164  128.4719   38.8760 C.3     191        0    0.0000
   1149 H         101.6228  129.3254   38.0042 H       191        0    0.0000
   1150 H         101.3086  128.0910   39.2191 H       191        0    0.0000
   1151 H         103.7203  127.5421   39.3727 H       191        0    0.0000
   1152 H         104.0933  128.6096   38.0238 H       191        0    0.0000
   1153 C         103.6115  129.6650   39.8741 C.3     192        0    0.0000
   1154 C         103.8139  129.1884   41.3166 C.3     192        0    0.0000
   1155 H         104.4744  130.2597   39.5498 H       192        0    0.0000
   1156 H         102.7354  130.3226   39.8146 H       192        0    0.0000
   1157 H         104.1409  128.1412   41.3244 H       192        0    0.0000
   1158 H         104.6099  129.7706   41.7970 H       192        0    0.0000
   1159 C         102.5072  129.3160   42.1733 C.3     193        0    0.0000
   1160 C         102.7444  130.0720   43.4853 C.3     193        0    0.0000
   1161 H         101.7421  129.8283   41.5770 H       193        0    0.0000
   1162 H         102.1222  128.3104   42.3830 H       193        0    0.0000
   1163 H         102.9035  129.3612   44.3056 H       193        0    0.0000
   1164 H         103.6567  130.6769   43.4112 H       193        0    0.0000
   1165 C         101.5445  131.0105   43.8554 C.3     194        0    0.0000
   1166 C         102.0127  132.3664   44.3952 C.3     194        0    0.0000
   1167 H         100.9209  131.1553   42.9645 H       194        0    0.0000
   1168 H         100.9172  130.5054   44.6003 H       194        0    0.0000
   1169 H         102.0066  132.3570   45.4922 H       194        0    0.0000
   1170 H         103.0484  132.5565   44.0875 H       194        0    0.0000
   1171 C         101.1121  133.5480   43.8951 C.3     195        0    0.0000
   1172 C          99.9721  133.8625   44.8701 C.3     195        0    0.0000
   1173 H         101.7406  134.4358   43.7523 H       195        0    0.0000
   1174 H         100.7040  133.2893   42.9101 H       195        0    0.0000
   1175 H         100.2089  133.4672   45.8657 H       195        0    0.0000
   1176 H          99.8604  134.9482   44.9806 H       195        0    0.0000
   1177 C          98.6041  133.2590   44.3992 C.3     196        0    0.0000
   1178 C          97.5119  134.3265   44.2705 C.3     196        0    0.0000
   1179 H          98.7527  132.7550   43.4361 H       196        0    0.0000
   1180 H          98.2933  132.4871   45.1141 H       196        0    0.0000
   1181 H          96.8955  134.3453   45.1779 H       196        0    0.0000
   1182 H          97.9665  135.3206   44.1780 H       196        0    0.0000
   1183 C          96.5820  134.0790   43.0330 C.3     197        0    0.0000
   1184 C          95.3055  133.3183   43.4085 C.3     197        0    0.0000
   1185 H          96.3250  135.0467   42.5846 H       197        0    0.0000
   1186 H          97.1439  133.5197   42.2747 H       197        0    0.0000
   1187 H          95.4487  132.7893   44.3589 H       197        0    0.0000
   1188 H          94.4789  134.0231   43.5617 H       197        0    0.0000
   1189 C          94.8877  132.2804   42.3105 C.3     198        0    0.0000
   1190 C          94.7085  130.8699   42.8827 C.3     198        0    0.0000
   1191 H          93.9548  132.6176   41.8419 H       198        0    0.0000
   1192 H          95.6511  132.2725   41.5226 H       198        0    0.0000
   1193 H          95.2418  130.7806   43.8372 H       198        0    0.0000
   1194 H          93.6487  130.6819   43.0952 H       198        0    0.0000
   1195 C          95.2322  129.7614   41.9057 C.3     199        0    0.0000
   1196 C          94.0915  128.9442   41.2894 C.3     199        0    0.0000
   1197 H          95.8235  130.2384   41.1142 H       199        0    0.0000
   1198 H          95.9149  129.1005   42.4541 H       199        0    0.0000
   1199 H          93.2258  128.9389   41.9632 H       199        0    0.0000
   1200 H          93.7590  129.4091   40.3529 H       199        0    0.0000
   1201 C          94.5127  127.4629   40.9964 C.3     200        0    0.0000
   1202 C          93.3941  126.4662   41.3195 C.3     200        0    0.0000
   1203 H          94.7982  127.3787   39.9405 H       200        0    0.0000
   1204 H          95.4082  127.2270   41.5846 H       200        0    0.0000
   1205 H          92.8959  126.7501   42.2548 H       200        0    0.0000
   1206 H          92.6285  126.4925   40.5342 H       200        0    0.0000
   1207 C          93.9274  124.9985   41.4563 C.3     201        0    0.0000
   1208 C          93.3506  124.0685   40.3833 C.3     201        0    0.0000
   1209 H          95.0225  125.0128   41.3925 H       201        0    0.0000
   1210 H          93.6750  124.6222   42.4554 H       201        0    0.0000
   1211 H          92.4829  123.5277   40.7811 H       201        0    0.0000
   1212 H          92.9911  124.6564   39.5297 H       201        0    0.0000
   1213 C          94.4041  123.0266   39.8714 C.3     202        0    0.0000
   1214 C          94.0758  122.5112   38.4658 C.3     202        0    0.0000
   1215 H          95.3964  123.4945   39.8782 H       202        0    0.0000
   1216 H          94.4459  122.1891   40.5788 H       202        0    0.0000
   1217 H          93.3493  121.6913   38.5259 H       202        0    0.0000
   1218 H          93.6052  123.3062   37.8740 H       202        0    0.0000
   1219 C          95.3497  122.0029   37.7067 C.3     203        0    0.0000
   1220 C          95.0328  121.5537   36.2760 C.3     203        0    0.0000
   1221 H          96.0966  122.8064   37.6920 H       203        0    0.0000
   1222 H          95.7909  121.1730   38.2726 H       203        0    0.0000
   1223 H          94.0318  121.1066   36.2352 H       203        0    0.0000
   1224 H          95.0182  122.4208   35.6041 H       203        0    0.0000
   1225 C          96.0735  120.5132   35.7358 C.3     204        0    0.0000
   1226 C          95.3994  119.2631   35.1595 C.3     204        0    0.0000
   1227 H          96.6901  120.9960   34.9676 H       204        0    0.0000
   1228 H          96.7500  120.2330   36.5527 H       204        0    0.0000
   1229 H          94.3790  119.1714   35.5518 H       204        0    0.0000
   1230 H          95.3111  119.3520   34.0697 H       204        0    0.0000
   1231 C          96.1904  117.9525   35.4973 C.3     205        0    0.0000
   1232 C          95.8273  116.7967   34.5585 C.3     205        0    0.0000
   1233 H          97.2654  118.1628   35.4367 H       205        0    0.0000
   1234 H          95.9823  117.6720   36.5373 H       205        0    0.0000
   1235 H          94.7493  116.8018   34.3552 H       205        0    0.0000
   1236 H          96.3308  116.9246   33.5923 H       205        0    0.0000
   1237 C          96.2227  115.4014   35.1536 C.3     206        0    0.0000
   1238 C          97.3188  114.7103   34.3351 C.3     206        0    0.0000
   1239 H          96.5576  115.5406   36.1890 H       206        0    0.0000
   1240 H          95.3279  114.7680   35.1944 H       206        0    0.0000
   1241 H          96.8695  114.0084   33.6217 H       206        0    0.0000
   1242 H          97.8700  115.4515   33.7432 H       206        0    0.0000
   1243 C          98.3337  113.9305   35.2402 C.3     207        0    0.0000
   1244 C          99.4252  113.2328   34.4211 C.3     207        0    0.0000
   1245 H          98.7874  114.6335   35.9497 H       207        0    0.0000
   1246 H          97.7818  113.1933   35.8364 H       207        0    0.0000
   1247 H          98.9943  112.8046   33.5076 H       207        0    0.0000
   1248 H         100.1798  113.9622   34.1016 H       207        0    0.0000
   1249 C         100.1354  112.0915   35.2278 C.3     208        0    0.0000
   1250 C         101.6097  112.4064   35.5042 C.3     208        0    0.0000
   1251 H          99.5994  111.9405   36.1731 H       208        0    0.0000
   1252 H         100.0501  111.1543   34.6641 H       208        0    0.0000
   1253 H         102.2220  111.5102   35.3447 H       208        0    0.0000
   1254 H         101.9711  113.1645   34.7984 H       208        0    0.0000
   1255 C         101.8428  112.9242   36.9653 C.3     209        0    0.0000
   1256 C         102.1820  114.4184   37.0048 C.3     209        0    0.0000
   1257 H         100.9411  112.7274   37.5583 H       209        0    0.0000
   1258 H         102.6532  112.3423   37.4216 H       209        0    0.0000
   1259 H         102.9936  114.6011   37.7201 H       209        0    0.0000
   1260 H         102.5467  114.7474   36.0239 H       209        0    0.0000
   1261 C         100.9476  115.2974   37.4059 C.3     210        0    0.0000
   1262 C         101.1740  116.7847   37.1131 C.3     210        0    0.0000
   1263 H         100.0654  114.9371   36.8624 H       210        0    0.0000
   1264 H         100.7413  115.1513   38.4734 H       210        0    0.0000
   1265 H         101.8261  117.2237   37.8783 H       210        0    0.0000
   1266 H         101.6903  116.9047   36.1526 H       210        0    0.0000
   1267 C          99.8313  117.5927   37.0694 C.3     211        0    0.0000
   1268 C          99.9899  118.9451   36.3658 C.3     211        0    0.0000
   1269 H          99.0718  116.9890   36.5574 H       211        0    0.0000
   1270 H          99.4752  117.7424   38.0962 H       211        0    0.0000
   1271 H          99.3258  119.6880   36.8247 H       211        0    0.0000
   1272 H         101.0141  119.3172   36.4924 H       211        0    0.0000
   1273 C          99.6694  118.8588   34.8337 C.3     212        0    0.0000
   1274 C         100.4579  119.8881   34.0165 C.3     212        0    0.0000
   1275 H          99.8967  117.8449   34.4815 H       212        0    0.0000
   1276 H          98.5924  119.0086   34.6887 H       212        0    0.0000
   1277 H         100.0045  120.0080   33.0247 H       212        0    0.0000
   1278 H         100.4129  120.8698   34.5042 H       212        0    0.0000
   1279 C         101.9611  119.4804   33.8390 C.3     213        0    0.0000
   1280 C         102.9102  120.6716   34.0107 C.3     213        0    0.0000
   1281 H         102.2038  118.6979   34.5686 H       213        0    0.0000
   1282 H         102.0918  119.0356   32.8447 H       213        0    0.0000
   1283 H         103.8346  120.5006   33.4452 H       213        0    0.0000
   1284 H         102.4524  121.5796   33.5991 H       213        0    0.0000
   1285 C         103.2770  120.9271   35.5133 C.3     214        0    0.0000
   1286 C         103.8079  122.3455   35.7485 C.3     214        0    0.0000
   1287 H         102.3864  120.7518   36.1294 H       214        0    0.0000
   1288 H         104.0260  120.1886   35.8250 H       214        0    0.0000
   1289 H         104.9050  122.3409   35.7506 H       214        0    0.0000
   1290 H         103.4972  123.0043   34.9281 H       214        0    0.0000
   1291 C         103.3026  122.9521   37.1028 C.3     215        0    0.0000
   1292 C         104.1970  122.5606   38.2842 C.3     215        0    0.0000
   1293 H         103.2616  124.0442   37.0076 H       215        0    0.0000
   1294 H         102.2746  122.6125   37.2805 H       215        0    0.0000
   1295 H         105.2402  122.4781   37.9550 H       215        0    0.0000
   1296 H         104.1700  123.3437   39.0521 H       215        0    0.0000
   1297 C         103.7629  121.2013   38.9332 C.3     216        0    0.0000
   1298 C         103.8672  121.2281   40.4621 C.3     216        0    0.0000
   1299 H         102.7324  120.9780   38.6304 H       216        0    0.0000
   1300 H         104.3914  120.3990   38.5273 H       216        0    0.0000
   1301 H         104.9149  121.1218   40.7696 H       216        0    0.0000
   1302 H         103.5230  122.1966   40.8457 H       216        0    0.0000
   1303 C         103.0252  120.0899   41.1351 C.3     217        0    0.0000
   1304 C         103.9053  119.0753   41.8734 C.3     217        0    0.0000
   1305 H         102.3095  120.5442   41.8316 H       217        0    0.0000
   1306 H         102.4342  119.5831   40.3622 H       217        0    0.0000
   1307 H         104.9093  119.0566   41.4317 H       217        0    0.0000
   1308 H         104.0277  119.3758   42.9214 H       217        0    0.0000
   1309 C         103.3070  117.6270   41.8296 C.3     218        0    0.0000
   1310 C         102.8819  117.1321   43.2165 C.3     218        0    0.0000
   1311 H         102.4474  117.6199   41.1479 H       218        0    0.0000
   1312 H         104.0547  116.9483   41.4009 H       218        0    0.0000
   1313 H         103.7296  116.6517   43.7206 H       218        0    0.0000
   1314 H         102.5824  117.9811   43.8434 H       218        0    0.0000
   1315 C         101.6930  116.1128   43.1448 C.3     219        0    0.0000
   1316 C         102.0959  114.7155   43.6290 C.3     219        0    0.0000
   1317 H         100.8620  116.4956   43.7502 H       219        0    0.0000
   1318 H         101.3320  116.0627   42.1101 H       219        0    0.0000
   1319 H         103.1579  114.5368   43.4203 H       219        0    0.0000
   1320 H         101.9722  114.6442   44.7167 H       219        0    0.0000
   1321 C         101.2500  113.5843   42.9491 C.3     220        0    0.0000
   1322 C         100.2854  112.9104   43.9311 C.3     220        0    0.0000
   1323 H         100.6911  114.0166   42.1098 H       220        0    0.0000
   1324 H         101.9334  112.8398   42.5223 H       220        0    0.0000
   1325 H         100.7845  112.0726   44.4335 H       220        0    0.0000
   1326 H          99.9918  113.6186   44.7159 H       220        0    0.0000
   1327 C          98.9927  112.3770   43.2226 C.3     221        0    0.0000
   1328 C          98.9124  110.8465   43.2361 C.3     221        0    0.0000
   1329 H          98.1141  112.8042   43.7217 H       221        0    0.0000
   1330 H          98.9782  112.7454   42.1893 H       221        0    0.0000
   1331 H          99.9203  110.4165   43.1830 H       221        0    0.0000
   1332 H          98.4719  110.5012   44.1796 H       221        0    0.0000
   1333 C          98.0605  110.2858   42.0456 C.3     222        0    0.0000
   1334 C          97.9237  108.7602   42.0971 C.3     222        0    0.0000
   1335 H          97.0684  110.7534   42.0697 H       222        0    0.0000
   1336 H          98.5292  110.5898   41.1014 H       222        0    0.0000
   1337 H          98.8608  108.3101   42.4478 H       222        0    0.0000
   1338 H          97.1483  108.4762   42.8194 H       222        0    0.0000
   1339 C          97.5613  108.1486   40.7000 C.3     223        0    0.0000
   1340 C          98.6464  107.1976   40.1830 C.3     223        0    0.0000
   1341 H          96.6048  107.6179   40.7837 H       223        0    0.0000
   1342 H          97.4063  108.9665   39.9854 H       223        0    0.0000
   1343 H          98.8178  107.3687   39.1130 H       223        0    0.0000
   1344 H          99.5974  107.4005   40.6908 H       223        0    0.0000
   1345 C          98.2690  105.6916   40.3999 C.3     224        0    0.0000
   1346 C          99.0606  104.7561   39.4794 C.3     224        0    0.0000
   1347 H          98.4508  105.4291   41.4494 H       224        0    0.0000
   1348 H          97.1928  105.5682   40.2262 H       224        0    0.0000
   1349 H          99.2225  105.2348   38.5057 H       224        0    0.0000
   1350 H         100.0533  104.5621   39.9040 H       224        0    0.0000
   1351 C          98.3310  103.3870   39.2542 C.3     225        0    0.0000
   1352 C          98.8947  102.2749   40.1456 C.3     225        0    0.0000
   1353 H          97.2600  103.5204   39.4513 H       225        0    0.0000
   1354 H          98.4243  103.1061   38.1979 H       225        0    0.0000
   1355 H          98.9946  101.3461   39.5703 H       225        0    0.0000
   1356 H          99.9016  102.5424   40.4893 H       225        0    0.0000
   1357 C          97.9903  101.9999   41.3961 C.3     226        0    0.0000
   1358 C          98.6690  101.0738   42.4114 C.3     226        0    0.0000
   1359 H          97.7403  102.9577   41.8691 H       226        0    0.0000
   1360 H          97.0443  101.5589   41.0583 H       226        0    0.0000
   1361 H          99.4093  100.4407   41.9069 H       226        0    0.0000
   1362 H          99.2160  101.6669   43.1547 H       226        0    0.0000
   1363 C          97.6411  100.1539   43.1562 C.3     227        0    0.0000
   1364 C          97.1314  100.7859   44.4561 C.3     227        0    0.0000
   1365 H          96.7996   99.9468   42.4834 H       227        0    0.0000
   1366 H          98.1190   99.1896   43.3689 H       227        0    0.0000
   1367 H          97.0907  100.0308   45.2508 H       227        0    0.0000
   1368 H          97.8279  101.5628   44.7950 H       227        0    0.0000
   1369 C          95.7080  101.4213   44.2895 C.3     228        0    0.0000
   1370 C          94.6863  100.8202   45.2610 C.3     228        0    0.0000
   1371 H          95.7838  102.5045   44.4459 H       228        0    0.0000
   1372 H          95.3744  101.2751   43.2547 H       228        0    0.0000
   1373 H          95.2031  100.3444   46.1036 H       228        0    0.0000
   1374 H          94.0577  101.6135   45.6842 H       228        0    0.0000
   1375 C          93.7628   99.7585   44.5700 C.3     229        0    0.0000
   1376 C          92.3035   99.8748   45.0238 C.3     229        0    0.0000
   1377 H          93.8299   99.8858   43.4825 H       229        0    0.0000
   1378 H          94.1476   98.7558   44.7942 H       229        0    0.0000
   1379 H          92.1902   99.4654   46.0352 H       229        0    0.0000
   1380 H          92.0090  100.9303   45.0764 H       229        0    0.0000
   1381 C          91.3204   99.1233   44.0614 C.3     230        0    0.0000
   1382 C          89.9979   98.7633   44.7474 C.3     230        0    0.0000
   1383 H          91.1298   99.7562   43.1858 H       230        0    0.0000
   1384 H          91.8123   98.2148   43.6924 H       230        0    0.0000
   1385 H          90.1942   98.2732   45.7090 H       230        0    0.0000
   1386 H          89.4286   99.6746   44.9686 H       230        0    0.0000
   1387 C          89.1117   97.8148   43.8685 C.3     231        0    0.0000
   1388 C          87.9461   97.2108   44.6595 C.3     231        0    0.0000
   1389 H          88.7302   98.3819   43.0104 H       231        0    0.0000
   1390 H          89.7443   97.0160   43.4619 H       231        0    0.0000
   1391 H          88.2579   97.0057   45.6911 H       231        0    0.0000
   1392 H          87.1187   97.9289   44.7172 H       231        0    0.0000
   1393 C          87.4179   95.8818   44.0175 C.3     232        0    0.0000
   1394 C          86.6308   95.0268   45.0168 C.3     232        0    0.0000
   1395 H          86.7857   96.1318   43.1565 H       232        0    0.0000
   1396 H          88.2716   95.3140   43.6272 H       232        0    0.0000
   1397 H          86.2839   95.6479   45.8519 H       232        0    0.0000
   1398 H          85.7344   94.6159   44.5361 H       232        0    0.0000
   1399 C          87.4852   93.8432   45.5883 C.3     233        0    0.0000
   1400 C          86.6752   92.5478   45.7097 C.3     233        0    0.0000
   1401 H          88.3521   93.6851   44.9348 H       233        0    0.0000
   1402 H          87.8796   94.1336   46.5700 H       233        0    0.0000
   1403 H          85.9389   92.6388   46.5178 H       233        0    0.0000
   1404 H          86.1096   92.3700   44.7867 H       233        0    0.0000
   1405 C          87.5848   91.3027   45.9927 C.3     234        0    0.0000
   1406 C          86.7673   90.0511   46.3306 C.3     234        0    0.0000
   1407 H          88.2123   91.1159   45.1125 H       234        0    0.0000
   1408 H          88.2650   91.5423   46.8194 H       234        0    0.0000
   1409 H          85.9984   90.2935   47.0746 H       234        0    0.0000
   1410 H          86.2399   89.6937   45.4375 H       234        0    0.0000
   1411 C          87.6614   88.8901   46.8878 C.3     235        0    0.0000
   1412 C          86.8434   87.6398   47.2295 C.3     235        0    0.0000
   1413 H          88.4285   88.6457   46.1425 H       235        0    0.0000
   1414 H          88.1911   89.2484   47.7792 H       235        0    0.0000
   1415 H          87.5142   86.8007   47.4520 H       235        0    0.0000
   1416 H          86.2478   87.8155   48.1339 H       235        0    0.0000
   1417 C          85.8815   87.2224   46.0641 C.3     236        0    0.0000
   1418 C          84.9535   86.0693   46.4618 C.3     236        0    0.0000
   1419 H          85.2891   88.0958   45.7646 H       236        0    0.0000
   1420 H          86.4843   86.9369   45.1931 H       236        0    0.0000
   1421 H          84.1571   86.4374   47.1204 H       236        0    0.0000
   1422 H          84.4614   85.6583   45.5716 H       236        0    0.0000
   1423 C          85.7208   84.9145   47.1934 C.3     237        0    0.0000
   1424 C          85.1418   83.5337   46.8659 C.3     237        0    0.0000
   1425 H          86.7790   84.9562   46.9071 H       237        0    0.0000
   1426 H          85.6799   85.0926   48.2752 H       237        0    0.0000
   1427 H          84.2379   83.3540   47.4610 H       237        0    0.0000
   1428 H          84.8385   83.4933   45.8123 H       237        0    0.0000
   1429 C          86.1660   82.3794   47.1415 C.3     238        0    0.0000
   1430 C          85.6381   81.0139   46.6877 C.3     238        0    0.0000
   1431 H          87.1060   82.6099   46.6249 H       238        0    0.0000
   1432 H          86.3934   82.3571   48.2145 H       238        0    0.0000
   1433 H          84.7066   80.7762   47.2161 H       238        0    0.0000
   1434 H          85.3956   81.0409   45.6181 H       238        0    0.0000
   1435 C          86.6714   79.8629   46.9426 C.3     239        0    0.0000
   1436 C          86.1023   78.4834   46.5931 C.3     239        0    0.0000
   1437 H          87.5730   80.0592   46.3491 H       239        0    0.0000
   1438 H          86.9762   79.8882   47.9962 H       239        0    0.0000
   1439 H          85.9529   78.4017   45.5094 H       239        0    0.0000
   1440 H          86.8173   77.6997   46.8726 H       239        0    0.0000
   1441 C          84.7385   78.2035   47.3137 C.3     240        0    0.0000
   1442 C          84.0708   76.9175   46.8142 C.3     240        0    0.0000
   1443 H          84.9161   78.1398   48.3944 H       240        0    0.0000
   1444 H          84.0718   79.0600   47.1540 H       240        0    0.0000
   1445 H          83.6845   76.3400   47.6632 H       240        0    0.0000
   1446 H          83.2088   77.1625   46.1815 H       240        0    0.0000
   1447 C          85.0576   76.0149   45.9962 C.3     241        0    0.0000
   1448 C          84.4970   74.6083   45.7590 C.3     241        0    0.0000
   1449 H          85.2695   76.5022   45.0365 H       241        0    0.0000
   1450 H          86.0108   75.9538   46.5359 H       241        0    0.0000
   1451 H          83.7091   74.3891   46.4902 H       241        0    0.0000
   1452 H          84.0312   74.5513   44.7673 H       241        0    0.0000
   1453 C          85.6035   73.5026   45.8618 C.3     242        0    0.0000
   1454 C          85.0279   72.0896   45.7165 C.3     242        0    0.0000
   1455 H          86.3572   73.6834   45.0854 H       242        0    0.0000
   1456 H          86.1151   73.6030   46.8270 H       242        0    0.0000
   1457 H          84.2261   71.9330   46.4487 H       242        0    0.0000
   1458 H          84.5766   71.9674   44.7241 H       242        0    0.0000
   1459 C          86.1179   70.9807   45.9160 C.3     243        0    0.0000
   1460 C          85.5097   69.5761   45.9960 C.3     243        0    0.0000
   1461 H          86.8329   71.0342   45.0856 H       243        0    0.0000
   1462 H          86.6814   71.1994   46.8315 H       243        0    0.0000
   1463 H          84.6736   69.5682   46.7062 H       243        0    0.0000
   1464 H          85.0975   69.2886   45.0209 H       243        0    0.0000
   1465 C          86.5589   68.4988   46.4387 C.3     244        0    0.0000
   1466 C          85.9338   67.1078   46.5918 C.3     244        0    0.0000
   1467 H          87.3681   68.4682   45.6986 H       244        0    0.0000
   1468 H          87.0112   68.8144   47.3871 H       244        0    0.0000
   1469 H          85.0448   67.1633   47.2321 H       244        0    0.0000
   1470 H          85.5966   66.7375   45.6157 H       244        0    0.0000
   1471 C          86.9356   66.0707   47.2070 C.3     245        0    0.0000
   1472 C          86.3228   64.6708   47.3250 C.3     245        0    0.0000
   1473 H          87.8364   66.0355   46.5818 H       245        0    0.0000
   1474 H          87.2516   66.4276   48.1951 H       245        0    0.0000
   1475 H          87.0913   63.9480   47.6258 H       245        0    0.0000
   1476 H          85.5564   64.6607   48.1099 H       245        0    0.0000
   1477 C          85.6757   64.1902   45.9805 C.3     246        0    0.0000
   1478 C          85.0905   62.7779   46.0898 C.3     246        0    0.0000
   1479 H          84.8915   64.9010   45.6916 H       246        0    0.0000
   1480 H          86.4364   64.2222   45.1907 H       246        0    0.0000
   1481 H          84.1920   62.7907   46.7192 H       246        0    0.0000
   1482 H          84.7768   62.4231   45.1002 H       246        0    0.0000
   1483 C          86.1148   61.7554   46.6920 C.3     247        0    0.0000
   1484 C          85.4703   60.3985   46.9963 C.3     247        0    0.0000
   1485 H          86.9441   61.6278   45.9853 H       247        0    0.0000
   1486 H          86.5436   62.1818   47.6073 H       247        0    0.0000
   1487 H          84.8272   60.4776   47.8815 H       247        0    0.0000
   1488 H          84.8241   60.0938   46.1637 H       247        0    0.0000
   1489 C          86.5367   59.2767   47.2450 C.3     248        0    0.0000
   1490 C          85.8926   57.9281   47.5847 C.3     248        0    0.0000
   1491 H          87.1630   59.1795   46.3495 H       248        0    0.0000
   1492 H          87.1992   59.5931   48.0601 H       248        0    0.0000
   1493 H          85.2258   58.0368   48.4491 H       248        0    0.0000
   1494 H          85.2706   57.5868   46.7479 H       248        0    0.0000
   1495 C          86.9588   56.8243   47.9047 C.3     249        0    0.0000
   1496 C          86.6173   56.0377   49.1750 C.3     249        0    0.0000
   1497 H          87.0302   56.1427   47.0480 H       249        0    0.0000
   1498 H          87.9410   57.3015   48.0104 H       249        0    0.0000
   1499 H          86.0496   56.6707   49.8682 H       249        0    0.0000
   1500 H          85.9730   55.1849   48.9276 H       249        0    0.0000
   1501 C          87.8977   55.5078   49.9079 C.3     250        0    0.0000
   1502 C          88.1452   54.0189   49.6414 C.3     250        0    0.0000
   1503 H          88.7626   56.0975   49.5796 H       250        0    0.0000
   1504 H          87.7869   55.6838   50.9851 H       250        0    0.0000
   1505 H          87.6022   53.4102   50.3750 H       250        0    0.0000
   1506 H          87.7554   53.7437   48.6535 H       250        0    0.0000
   1507 C          89.6672   53.6489   49.7052 C.3     251        0    0.0000
   1508 C          89.9102   52.1509   49.4903 C.3     251        0    0.0000
   1509 H          90.2045   54.2299   48.9454 H       251        0    0.0000
   1510 H          90.0659   53.9587   50.6791 H       251        0    0.0000
   1511 H          88.9908   51.5878   49.6926 H       251        0    0.0000
   1512 H          90.1731   51.9590   48.4426 H       251        0    0.0000
   1513 C          91.0543   51.5971   50.4078 C.3     252        0    0.0000
   1514 C          91.2194   50.0789   50.2778 C.3     252        0    0.0000
   1515 H          91.9928   52.1013   50.1461 H       252        0    0.0000
   1516 H          90.8330   51.8637   51.4487 H       252        0    0.0000
   1517 H          90.3336   49.5687   50.6759 H       252        0    0.0000
   1518 H          91.2961   49.7980   49.2201 H       252        0    0.0000
   1519 C          92.4880   49.5524   51.0336 C.3     253        0    0.0000
   1520 C          92.6579   48.0354   50.8964 C.3     253        0    0.0000
   1521 H          93.3731   50.0673   50.6399 H       253        0    0.0000
   1522 H          92.4083   49.8278   52.0926 H       253        0    0.0000
   1523 H          91.7096   47.5293   51.1158 H       253        0    0.0000
   1524 H          92.9205   47.7783   49.8627 H       253        0    0.0000
   1525 C          93.7643   47.4726   51.8538 C.3     254        0    0.0000
   1526 C          93.9176   45.9523   51.7340 C.3     254        0    0.0000
   1527 H          94.7165   47.9661   51.6225 H       254        0    0.0000
   1528 H          93.5109   47.7449   52.8858 H       254        0    0.0000
   1529 H          92.9345   45.4692   51.7945 H       254        0    0.0000
   1530 H          94.3364   45.6926   50.7538 H       254        0    0.0000
   1531 C          94.8422   45.3585   52.8520 C.3     255        0    0.0000
   1532 C          94.9506   43.8321   52.7660 C.3     255        0    0.0000
   1533 H          95.8375   45.8118   52.7655 H       255        0    0.0000
   1534 H          94.4460   45.6529   53.8318 H       255        0    0.0000
   1535 H          93.9500   43.3825   52.7799 H       255        0    0.0000
   1536 H          95.4137   43.5409   51.8151 H       255        0    0.0000
   1537 C          95.7919   43.2290   53.9433 C.3     256        0    0.0000
   1538 C          95.6389   41.7075   54.0467 C.3     256        0    0.0000
   1539 H          96.8467   43.4918   53.7951 H       256        0    0.0000
   1540 H          95.4779   43.7032   54.8814 H       256        0    0.0000
   1541 H          94.5772   41.4402   54.1171 H       256        0    0.0000
   1542 H          96.0249   41.2281   53.1385 H       256        0    0.0000
   1543 C          96.3920   41.1177   55.2886 C.3     257        0    0.0000
   1544 C          96.1782   39.6070   55.4339 C.3     257        0    0.0000
   1545 H          97.4622   41.3384   55.1908 H       257        0    0.0000
   1546 H          96.0448   41.6353   56.1914 H       257        0    0.0000
   1547 H          95.1076   39.3857   55.5250 H       257        0    0.0000
   1548 H          96.5316   39.0887   54.5339 H       257        0    0.0000
   1549 C          96.9236   39.0188   56.6813 C.3     258        0    0.0000
   1550 C          96.9301   37.4861   56.6847 C.3     258        0    0.0000
   1551 H          97.9525   39.3993   56.6903 H       258        0    0.0000
   1552 H          96.4407   39.3949   57.5917 H       258        0    0.0000
   1553 H          95.9021   37.1057   56.7302 H       258        0    0.0000
   1554 H          97.3642   37.1098   55.7501 H       258        0    0.0000
   1555 C          97.7404   36.8981   57.8909 C.3     259        0    0.0000
   1556 C          98.6984   35.7826   57.4585 C.3     259        0    0.0000
   1557 H          98.3008   37.7105   58.3700 H       259        0    0.0000
   1558 H          97.0343   36.5183   58.6396 H       259        0    0.0000
   1559 H          98.1353   34.8666   57.2407 H       259        0    0.0000
   1560 H          99.2108   36.0656   56.5306 H       259        0    0.0000
   1561 C          99.7745   35.4660   58.5536 C.3     260        0    0.0000
   1562 C          99.6797   34.0228   59.0608 C.3     260        0    0.0000
   1563 H         100.7710   35.6527   58.1345 H       260        0    0.0000
   1564 H          99.6470   36.1670   59.3877 H       260        0    0.0000
   1565 H          98.6336   33.6924   59.0621 H       260        0    0.0000
   1566 H         100.2217   33.3500   58.3846 H       260        0    0.0000
   1567 C         100.2621   33.8620   60.5074 C.3     261        0    0.0000
   1568 C         101.3709   32.8059   60.5731 C.3     261        0    0.0000
   1569 H         100.6469   34.8328   60.8435 H       261        0    0.0000
   1570 H          99.4458   33.5934   61.1893 H       261        0    0.0000
   1571 H         100.9344   31.7999   60.5434 H       261        0    0.0000
   1572 H         102.0246   32.8917   59.6962 H       261        0    0.0000
   1573 C         102.2432   32.9402   61.8687 C.3     262        0    0.0000
   1574 C         103.2836   31.8210   61.9870 C.3     262        0    0.0000
   1575 H         102.7414   33.9176   61.8597 H       262        0    0.0000
   1576 H         101.5810   32.9322   62.7432 H       262        0    0.0000
   1577 H         102.7964   30.8428   61.8910 H       262        0    0.0000
   1578 H         104.0089   31.8935   61.1671 H       262        0    0.0000
   1579 C         104.0557   31.8693   63.3504 C.3     263        0    0.0000
   1580 C         105.0835   30.7394   63.4762 C.3     263        0    0.0000
   1581 H         104.5539   32.8426   63.4404 H       263        0    0.0000
   1582 H         103.3294   31.8102   64.1704 H       263        0    0.0000
   1583 H         106.0804   31.1568   63.6646 H       263        0    0.0000
   1584 H         104.8403   30.1038   64.3367 H       263        0    0.0000
   1585 C         105.1448   29.8460   62.1895 C.3     264        0    0.0000
   1586 C         106.1854   28.7270   62.3083 C.3     264        0    0.0000
   1587 H         104.1511   29.4179   62.0086 H       264        0    0.0000
   1588 H         105.3749   30.4836   61.3270 H       264        0    0.0000
   1589 H         106.4192   28.5413   63.3640 H       264        0    0.0000
   1590 H         105.7786   27.7908   61.9064 H       264        0    0.0000
   1591 C         107.5138   29.0680   61.5490 C.3     265        0    0.0000
   1592 C         108.5424   27.9354   61.6408 C.3     265        0    0.0000
   1593 H         107.2769   29.2768   60.4984 H       265        0    0.0000
   1594 H         107.9330   29.9916   61.9670 H       265        0    0.0000
   1595 H         108.2392   27.0991   60.9988 H       265        0    0.0000
   1596 H         109.5157   28.2803   61.2702 H       265        0    0.0000
   1597 C         108.7175   27.4093   63.1070 C.3     266        0    0.0000
   1598 C         109.7664   26.2959   63.2032 C.3     266        0    0.0000
   1599 H         109.0007   28.2497   63.7528 H       266        0    0.0000
   1600 H         107.7484   27.0454   63.4703 H       266        0    0.0000
   1601 H         109.9658   26.0568   64.2552 H       266        0    0.0000
   1602 H         109.3848   25.3784   62.7384 H       266        0    0.0000
   1603 C         111.1161   26.6898   62.5100 C.3     267        0    0.0000
   1604 C         112.2737   25.7783   62.9324 C.3     267        0    0.0000
   1605 H         110.9808   26.6464   61.4222 H       267        0    0.0000
   1606 H         111.3493   27.7329   62.7571 H       267        0    0.0000
   1607 H         112.1911   25.5351   63.9989 H       267        0    0.0000
   1608 H         112.2218   24.8275   62.3875 H       267        0    0.0000
   1609 C         113.6729   26.4349   62.6707 C.3     268        0    0.0000
   1610 C         114.7685   25.8430   63.5641 C.3     268        0    0.0000
   1611 H         113.9351   26.2994   61.6141 H       268        0    0.0000
   1612 H         113.5932   27.5160   62.8393 H       268        0    0.0000
   1613 H         114.4331   25.8245   64.6085 H       268        0    0.0000
   1614 H         114.9658   24.8025   63.2781 H       268        0    0.0000
   1615 C         116.1077   26.6534   63.4779 C.3     269        0    0.0000
   1616 C         117.1834   26.0994   64.4186 C.3     269        0    0.0000
   1617 H         116.4674   26.6328   62.4416 H       269        0    0.0000
   1618 H         115.9017   27.7036   63.7190 H       269        0    0.0000
   1619 H         116.8448   26.1693   65.4597 H       269        0    0.0000
   1620 H         117.3513   25.0350   64.2127 H       269        0    0.0000
   1621 C         118.5457   26.8623   64.2780 C.3     270        0    0.0000
   1622 C         119.6444   26.2561   65.1580 C.3     270        0    0.0000
   1623 H         118.8541   26.8441   63.2253 H       270        0    0.0000
   1624 H         118.3901   27.9155   64.5426 H       270        0    0.0000
   1625 H         120.5365   26.8944   65.1391 H       270        0    0.0000
   1626 H         119.3096   26.2136   66.2019 H       270        0    0.0000
   1627 C         120.0460   24.8126   64.6970 C.3     271        0    0.0000
   1628 C         121.2003   24.2383   65.5258 C.3     271        0    0.0000
   1629 H         119.1675   24.1600   64.7728 H       271        0    0.0000
   1630 H         120.3241   24.8448   63.6363 H       271        0    0.0000
   1631 H         122.0291   24.9561   65.5646 H       271        0    0.0000
   1632 H         120.8756   24.0758   66.5611 H       271        0    0.0000
   1633 C         121.7323   22.8832   64.9445 C.3     272        0    0.0000
   1634 C         122.8471   22.2794   65.8057 C.3     272        0    0.0000
   1635 H         120.8947   22.1791   64.8657 H       272        0    0.0000
   1636 H         122.0965   23.0549   63.9240 H       272        0    0.0000
   1637 H         123.7171   22.9475   65.8173 H       272        0    0.0000
   1638 H         122.5094   22.1838   66.8452 H       272        0    0.0000
   1639 C         123.2992   20.8699   65.2897 C.3     273        0    0.0000
   1640 C         124.2717   20.1825   66.2546 C.3     273        0    0.0000
   1641 H         122.4096   20.2448   65.1435 H       273        0    0.0000
   1642 H         123.7670   20.9874   64.3044 H       273        0    0.0000
   1643 H         125.2404   20.6972   66.2423 H       273        0    0.0000
   1644 H         123.8925   20.2493   67.2818 H       273        0    0.0000
   1645 C         124.4968   18.6731   65.8961 C.3     274        0    0.0000
   1646 C         125.4213   17.9703   66.8963 C.3     274        0    0.0000
   1647 H         123.5234   18.1682   65.8647 H       274        0    0.0000
   1648 H         124.9179   18.6088   64.8852 H       274        0    0.0000
   1649 H         125.0663   18.1402   67.9203 H       274        0    0.0000
   1650 H         125.3993   16.8860   66.7311 H       274        0    0.0000
   1651 C         126.9037   18.4681   66.7863 C.3     275        0    0.0000
   1652 C         127.8421   17.7123   67.7335 C.3     275        0    0.0000
   1653 H         127.2406   18.3492   65.7490 H       275        0    0.0000
   1654 H         126.9331   19.5426   67.0058 H       275        0    0.0000
   1655 H         127.8047   18.1583   68.7351 H       275        0    0.0000
   1656 H         127.5114   16.6717   67.8394 H       275        0    0.0000
   1657 C         129.3271   17.7219   67.2312 C.3     276        0    0.0000
   1658 C         130.2945   17.1397   68.2676 C.3     276        0    0.0000
   1659 H         129.3881   17.1503   66.2969 H       276        0    0.0000
   1660 H         129.6117   18.7533   66.9887 H       276        0    0.0000
   1661 H         130.0410   17.5101   69.2687 H       276        0    0.0000
   1662 H         130.1967   16.0475   68.3017 H       276        0    0.0000
   1663 C         131.7874   17.5037   67.9572 C.3     277        0    0.0000
   1664 C         132.7422   17.0279   69.0576 C.3     277        0    0.0000
   1665 H         132.0681   17.0557   66.9960 H       277        0    0.0000
   1666 H         131.8679   18.5908   67.8335 H       277        0    0.0000
   1667 H         132.3692   17.3412   70.0406 H       277        0    0.0000
   1668 H         132.7840   15.9317   69.0713 H       277        0    0.0000
   1669 C         134.1944   17.5865   68.8667 C.3     278        0    0.0000
   1670 C         135.1042   17.2579   70.0555 C.3     278        0    0.0000
   1671 H         134.6155   17.1686   67.9439 H       278        0    0.0000
   1672 H         134.1394   18.6729   68.7241 H       278        0    0.0000
   1673 H         134.5559   17.3896   70.9965 H       278        0    0.0000
   1674 H         135.4113   16.2055   70.0145 H       278        0    0.0000
   1675 C         136.3874   18.1578   70.0882 C.3     279        0    0.0000
   1676 C         137.3182   17.8001   71.2521 C.3     279        0    0.0000
   1677 H         136.9191   18.0502   69.1346 H       279        0    0.0000
   1678 H         136.0806   19.2085   70.1610 H       279        0    0.0000
   1679 H         137.0123   18.3388   72.1575 H       279        0    0.0000
   1680 H         137.2404   16.7300   71.4809 H       279        0    0.0000
   1681 C         138.8161   18.1429   70.9419 C.3     280        0    0.0000
   1682 C         139.7388   17.8402   72.1277 C.3     280        0    0.0000
   1683 H         139.1348   17.5709   70.0617 H       280        0    0.0000
   1684 H         138.8873   19.2036   70.6711 H       280        0    0.0000
   1685 H         139.4601   18.4599   72.9890 H       280        0    0.0000
   1686 H         139.6197   16.7952   72.4397 H       280        0    0.0000
   1687 C         141.2473   18.0971   71.7873 C.3     281        0    0.0000
   1688 C         142.1918   17.4118   72.7809 C.3     281        0    0.0000
   1689 H         141.4464   17.7379   70.7700 H       281        0    0.0000
   1690 H         141.4290   19.1790   71.7806 H       281        0    0.0000
   1691 H         142.2073   17.9651   73.7281 H       281        0    0.0000
   1692 H         141.8278   16.4029   73.0113 H       281        0    0.0000
   1693 C         143.6568   17.3074   72.2327 C.3     282        0    0.0000
   1694 C         144.3517   16.0148   72.6748 C.3     282        0    0.0000
   1695 H         143.6294   17.3641   71.1374 H       282        0    0.0000
   1696 H         144.2269   18.1783   72.5790 H       282        0    0.0000
   1697 H         145.3918   16.0086   72.3259 H       282        0    0.0000
   1698 H         144.3864   15.9620   73.7700 H       282        0    0.0000
   1699 C         143.6284   14.7352   72.1299 C.3     283        0    0.0000
   1700 C         144.3738   13.4467   72.4951 C.3     283        0    0.0000
   1701 H         142.6084   14.7068   72.5331 H       283        0    0.0000
   1702 H         143.5341   14.8192   71.0402 H       283        0    0.0000
   1703 H         143.7268   12.5770   72.3261 H       283        0    0.0000
   1704 H         145.2477   13.3204   71.8441 H       283        0    0.0000
   1705 C         144.8507   13.4392   73.9884 C.3     284        0    0.0000
   1706 C         145.7117   12.2145   74.3170 C.3     284        0    0.0000
   1707 H         145.4152   14.3593   74.1840 H       284        0    0.0000
   1708 H         143.9694   13.4655   74.6412 H       284        0    0.0000
   1709 H         146.7471   12.5229   74.5078 H       284        0    0.0000
   1710 H         145.3508   11.7366   75.2362 H       284        0    0.0000
   1711 C         145.7047   11.1559   73.1608 C.3     285        0    0.0000
   1712 C         146.7020   10.0187   73.4084 C.3     285        0    0.0000
   1713 H         144.6903   10.7509   73.0583 H       285        0    0.0000
   1714 H         145.9386   11.6624   72.2162 H       285        0    0.0000
   1715 H         146.3913    9.4290   74.2797 H       285        0    0.0000
   1716 H         146.7117    9.3337   72.5516 H       285        0    0.0000
   1717 C         148.1580   10.5474   73.6492 C.3     286        0    0.0000
   1718 C         149.1262    9.4253   74.0397 C.3     286        0    0.0000
   1719 H         148.5085   11.0462   72.7371 H       286        0    0.0000
   1720 H         148.1311   11.3117   74.4358 H       286        0    0.0000
   1721 H         148.7778    8.9290   74.9540 H       286        0    0.0000
   1722 H         149.1503    8.6591   73.2549 H       286        0    0.0000
   1723 C         150.5834    9.9531   74.2753 C.3     287        0    0.0000
   1724 C         151.5671    8.8213   74.5920 C.3     287        0    0.0000
   1725 H         150.9113   10.4973   73.3809 H       287        0    0.0000
   1726 H         150.5679   10.6791   75.0977 H       287        0    0.0000
   1727 H         151.2652    8.3071   75.5129 H       287        0    0.0000
   1728 H         151.5478    8.0712   73.7916 H       287        0    0.0000
   1729 C         153.0362    9.3412   74.7620 C.3     288        0    0.0000
   1730 C         154.0012    8.2277   75.1839 C.3     288        0    0.0000
   1731 H         153.3658    9.7857   73.8148 H       288        0    0.0000
   1732 H         153.0423   10.1465   75.5070 H       288        0    0.0000
   1733 H         153.6487    7.7548   76.1089 H       288        0    0.0000
   1734 H         154.0269    7.4421   74.4185 H       288        0    0.0000
   1735 C         155.4584    8.7590   75.4116 C.3     289        0    0.0000
   1736 C         156.3634    7.7100   76.0671 C.3     289        0    0.0000
   1737 H         155.8776    9.0667   74.4456 H       289        0    0.0000
   1738 H         155.4127    9.6597   76.0364 H       289        0    0.0000
   1739 H         157.3441    7.6993   75.5754 H       289        0    0.0000
   1740 H         156.5406    7.9701   77.1180 H       289        0    0.0000
   1741 C         155.7486    6.2696   75.9997 C.3     290        0    0.0000
   1742 C         156.4263    5.3025   76.9767 C.3     290        0    0.0000
   1743 H         154.6751    6.3327   76.2167 H       290        0    0.0000
   1744 H         155.8409    5.8934   74.9733 H       290        0    0.0000
   1745 H         157.2583    4.7878   76.4803 H       290        0    0.0000
   1746 H         156.8573    5.8587   77.8184 H       290        0    0.0000
   1747 C         155.4305    4.2293   77.5372 C.3     291        0    0.0000
   1748 C         156.1529    3.0925   78.2685 C.3     291        0    0.0000
   1749 H         154.7233    4.7231   78.2151 H       291        0    0.0000
   1750 H         154.8401    3.8261   76.7052 H       291        0    0.0000
   1751 H         156.6699    3.4833   79.1537 H       291        0    0.0000
   1752 H         155.4253    2.3547   78.6287 H       291        0    0.0000
   1753 C         157.1976    2.3663   77.3527 C.3     292        0    0.0000
   1754 C         157.9657    1.2721   78.1023 C.3     292        0    0.0000
   1755 H         156.6731    1.9349   76.4912 H       292        0    0.0000
   1756 H         157.8974    3.1116   76.9547 H       292        0    0.0000
   1757 H         157.2892    0.4484   78.3622 H       292        0    0.0000
   1758 H         158.7440    0.8484   77.4555 H       292        0    0.0000
   1759 C         158.6357    1.8087   79.4140 C.3     293        0    0.0000
   1760 C         159.4141    0.7174   80.1571 C.3     293        0    0.0000
   1761 H         159.3053    2.6383   79.1552 H       293        0    0.0000
   1762 H         157.8563    2.2242   80.0647 H       293        0    0.0000
   1763 H         158.9659   -0.2645   79.9604 H       293        0    0.0000
   1764 H         160.4457    0.6727   79.7866 H       293        0    0.0000
   1765 C         159.4433    0.9584   81.7058 C.3     294        0    0.0000
   1766 C         160.1563   -0.1719   82.4562 C.3     294        0    0.0000
   1767 H         159.9414    1.9152   81.9054 H       294        0    0.0000
   1768 H         158.4124    1.0583   82.0676 H       294        0    0.0000
   1769 H         159.7393   -1.1422   82.1592 H       294        0    0.0000
   1770 H         161.2196   -0.1902   82.1866 H       294        0    0.0000
   1771 C         160.0319   -0.0233   84.0118 C.3     295        0    0.0000
   1772 C         160.7701   -1.1370   84.7626 C.3     295        0    0.0000
   1773 H         160.4288    0.9561   84.3063 H       295        0    0.0000
   1774 H         158.9690   -0.0271   84.2834 H       295        0    0.0000
   1775 H         160.3669   -2.1159   84.4749 H       295        0    0.0000
   1776 H         161.8312   -1.1392   84.4839 H       295        0    0.0000
   1777 C         160.6566   -0.9811   86.3183 C.3     296        0    0.0000
   1778 C         161.8388   -1.6215   87.0541 C.3     296        0    0.0000
   1779 H         160.5950    0.0866   86.5631 H       296        0    0.0000
   1780 H         159.7153   -1.4355   86.6515 H       296        0    0.0000
   1781 H         161.8234   -2.7096   86.9151 H       296        0    0.0000
   1782 H         162.7848   -1.2631   86.6297 H       296        0    0.0000
   1783 C         161.8230   -1.3080   88.5899 C.3     297        0    0.0000
   1784 C         161.8951   -2.5792   89.4431 C.3     297        0    0.0000
   1785 H         162.6678   -0.6488   88.8249 H       297        0    0.0000
   1786 H         160.9104   -0.7471   88.8270 H       297        0    0.0000
   1787 H         161.4483   -3.4218   88.9010 H       297        0    0.0000
   1788 H         162.9422   -2.8461   89.6326 H       297        0    0.0000
   1789 C         161.1588   -2.4150   90.8173 C.3     298        0    0.0000
   1790 C         162.1373   -2.2236   91.9813 C.3     298        0    0.0000
   1791 H         160.4779   -1.5572   90.7533 H       298        0    0.0000
   1792 H         160.5348   -3.3002   90.9921 H       298        0    0.0000
   1793 H         162.3654   -3.1918   92.4440 H       298        0    0.0000
   1794 H         163.0877   -1.8195   91.6112 H       298        0    0.0000
   1795 C         161.5719   -1.2592   93.0802 C.3     299        0    0.0000
   1796 C         161.8405   -1.7738   94.4987 C.3     299        0    0.0000
   1797 H         162.0239   -0.2684   92.9477 H       299        0    0.0000
   1798 H         160.4931   -1.1369   92.9224 H       299        0    0.0000
   1799 H         161.5994   -2.8421   94.5631 H       299        0    0.0000
   1800 H         162.9065   -1.6764   94.7386 H       299        0    0.0000
   1801 C         161.0069   -1.0016   95.5786 C.3     300        0    0.0000
   1802 C         161.3836   -1.4125   97.0063 C.3     300        0    0.0000
   1803 H         161.1644    0.0756   95.4433 H       300        0    0.0000
   1804 H         159.9403   -1.1887   95.4024 H       300        0    0.0000
   1805 H         161.1918   -2.4827   97.1528 H       300        0    0.0000
   1806 H         162.4575   -1.2596   97.1708 H       300        0    0.0000
   1807 C         160.5867   -0.6037   98.0871 C.3     301        0    0.0000
   1808 C         160.9741   -1.0041   99.5149 C.3     301        0    0.0000
   1809 H         160.7700    0.4670   97.9339 H       301        0    0.0000
   1810 H         159.5131   -0.7652   97.9293 H       301        0    0.0000
   1811 H         160.7862   -2.0738   99.6697 H       301        0    0.0000
   1812 H         162.0486   -0.8472   99.6712 H       301        0    0.0000
   1813 C         160.1822   -0.1904  100.5958 C.3     302        0    0.0000
   1814 C         160.5738   -0.5868  102.0235 C.3     302        0    0.0000
   1815 H         160.3668    0.8795  100.4384 H       302        0    0.0000
   1816 H         159.1078   -0.3507  100.4421 H       302        0    0.0000
   1817 H         160.3882   -1.6565  102.1813 H       302        0    0.0000
   1818 H         161.6483   -0.4276  102.1769 H       302        0    0.0000
   1819 C         159.7829    0.2279  103.1044 C.3     303        0    0.0000
   1820 C         160.1694   -0.1736  104.5322 C.3     303        0    0.0000
   1821 H         159.9727    1.2973  102.9500 H       303        0    0.0000
   1822 H         158.7082    0.0728  102.9479 H       303        0    0.0000
   1823 H         159.9810   -1.2433  104.6862 H       303        0    0.0000
   1824 H         161.2438   -0.0171  104.6891 H       303        0    0.0000
   1825 C         159.3771    0.6398  105.6130 C.3     304        0    0.0000
   1826 C         159.7654    0.2401  107.0408 C.3     304        0    0.0000
   1827 H         159.5640    1.7096  105.4579 H       304        0    0.0000
   1828 H         158.3027    0.4818  105.4572 H       304        0    0.0000
   1829 H         159.5738   -0.8287  107.1976 H       304        0    0.0000
   1830 H         160.8407    0.3933  107.1951 H       304        0    0.0000
   1831 C         158.9783    1.0585  108.1217 C.3     305        0    0.0000
   1832 C         159.3675    0.6597  109.5495 C.3     305        0    0.0000
   1833 H         159.1693    2.1273  107.9643 H       305        0    0.0000
   1834 H         157.9030    0.9046  107.9680 H       305        0    0.0000
   1835 H         160.3739    1.0290  109.7821 H       305        0    0.0000
   1836 H         158.6856    1.1282  110.2700 H       305        0    0.0000
   1837 C         159.3376   -0.8932  109.7616 C.3     306        0    0.0000
   1838 C         159.7282   -1.2921  111.1890 C.3     306        0    0.0000
   1839 H         158.3308   -1.2625  109.5300 H       306        0    0.0000
   1840 H         160.0187   -1.3618  109.0404 H       306        0    0.0000
   1841 H         158.9143   -1.8596  111.6570 H       306        0    0.0000
   1842 H         160.6027   -1.9541  111.1686 H       306        0    0.0000
   1843 C         160.0569   -0.0482  112.0846 C.3     307        0    0.0000
   1844 C         160.1472   -0.4103  113.5711 C.3     307        0    0.0000
   1845 H         161.0035    0.3909  111.7462 H       307        0    0.0000
   1846 H         159.2829    0.7137  111.9294 H       307        0    0.0000
   1847 H         159.4782   -1.2504  113.7950 H       307        0    0.0000
   1848 H         161.1635   -0.7430  113.8161 H       307        0    0.0000
   1849 C         159.7726    0.7954  114.5002 C.3     308        0    0.0000
   1850 C         159.8689    0.4351  115.9868 C.3     308        0    0.0000
   1851 H         160.4387    1.6370  114.2732 H       308        0    0.0000
   1852 H         158.7546    1.1253  114.2582 H       308        0    0.0000
   1853 H         159.7598    1.3379  116.6005 H       308        0    0.0000
   1854 H         159.0471   -0.2362  116.2651 H       308        0    0.0000
   1855 C         161.2296   -0.2569  116.3434 C.3     309        0    0.0000
   1856 C         161.3410   -0.5842  117.8365 C.3     309        0    0.0000
   1857 H         161.3263   -1.1739  115.7490 H       309        0    0.0000
   1858 H         162.0519    0.4031  116.0405 H       309        0    0.0000
   1859 H         161.5383   -1.6547  117.9732 H       309        0    0.0000
   1860 H         162.1911   -0.0485  118.2767 H       309        0    0.0000
   1861 C         160.0410   -0.2052  118.6264 C.3     310        0    0.0000
   1862 C         160.2389   -0.2872  120.1440 C.3     310        0    0.0000
   1863 H         159.7370    0.8095  118.3410 H       310        0    0.0000
   1864 H         159.2304   -0.8760  118.3160 H       310        0    0.0000
   1865 H         159.8752   -1.2519  120.5192 H       310        0    0.0000
   1866 H         161.3074   -0.2372  120.3874 H       310        0    0.0000
   1867 C         159.4933    0.8638  120.9034 C.3     311        0    0.0000
   1868 C         159.7091    0.7946  122.4192 C.3     311        0    0.0000
   1869 H         159.8453    1.8283  120.5170 H       311        0    0.0000
   1870 H         158.4224    0.8039  120.6728 H       311        0    0.0000
   1871 H         159.3016    1.6933  122.8986 H       311        0    0.0000
   1872 H         159.1642   -0.0604  122.8381 H       311        0    0.0000
   1873 C         161.2245    0.6628  122.7982 C.3     312        0    0.0000
   1874 C         161.4235    0.2329  124.2558 C.3     312        0    0.0000
   1875 H         161.6957   -0.0632  122.1242 H       312        0    0.0000
   1876 H         161.7188    1.6258  122.6192 H       312        0    0.0000
   1877 H         160.9523    0.9590  124.9298 H       312        0    0.0000
   1878 H         160.9292   -0.7300  124.4348 H       312        0    0.0000
   1879 H         162.4772    0.1413  124.5193 H       312        0    0.0000
   1880 H         149.2798   53.1887  121.7450 H         0        0    0.0000
@<TRIPOS>BOND
     1     1     2      1
     2     1     3      1
     3     1     4      1
     4     1  1880      H
     5     2     5      1
     6     2     6      1
     7     2     7      1
     8     7     8      1
     9     7     9      1
    10     7    10      1
    11     8    11      1
    12     8    12      1
    13     8    13      1
    14    13    14      1
    15    13    15      1
    16    13    16      1
    17    14    17      1
    18    14    18      1
    19    14    19      1
    20    19    20      1
    21    19    21      1
    22    19    22      1
    23    20    23      1
    24    20    24      1
    25    20    25      1
    26    25    26      1
    27    25    27      1
    28    25    28      1
    29    26    29      1
    30    26    30      1
    31    26    31      1
    32    31    32      1
    33    31    33      1
    34    31    34      1
    35    32    35      1
    36    32    36      1
    37    32    37      1
    38    37    38      1
    39    37    39      1
    40    37    40      1
    41    38    41      1
    42    38    42      1
    43    38    43      1
    44    43    44      1
    45    43    45      1
    46    43    46      1
    47    44    47      1
    48    44    48      1
    49    44    49      1
    50    49    50      1
    51    49    51      1
    52    49    52      1
    53    50    53      1
    54    50    54      1
    55    50    55      1
    56    55    56      1
    57    55    57      1
    58    55    58      1
    59    56    59      1
    60    56    60      1
    61    56    61      1
    62    61    62      1
    63    61    63      1
    64    61    64      1
    65    62    65      1
    66    62    66      1
    67    62    67      1
    68    67    68      1
    69    67    69      1
    70    67    70      1
    71    68    71      1
    72    68    72      1
    73    68    73      1
    74    73    74      1
    75    73    75      1
    76    73    76      1
    77    74    77      1
    78    74    78      1
    79    74    79      1
    80    79    80      1
    81    79    81      1
    82    79    82      1
    83    80    83      1
    84    80    84      1
    85    80    85      1
    86    85    86      1
    87    85    87      1
    88    85    88      1
    89    86    89      1
    90    86    90      1
    91    86    91      1
    92    91    92      1
    93    91    93      1
    94    91    94      1
    95    92    95      1
    96    92    96      1
    97    92    97      1
    98    97    98      1
    99    97    99      1
   100    97   100      1
   101    98   101      1
   102    98   102      1
   103    98   103      1
   104   103   104      1
   105   103   105      1
   106   103   106      1
   107   104   107      1
   108   104   108      1
   109   104   109      1
   110   109   110      1
   111   109   111      1
   112   109   112      1
   113   110   113      1
   114   110   114      1
   115   110   115      1
   116   115   116      1
   117   115   117      1
   118   115   118      1
   119   116   119      1
   120   116   120      1
   121   116   121      1
   122   121   122      1
   123   121   123      1
   124   121   124      1
   125   122   125      1
   126   122   126      1
   127   122   127      1
   128   127   128      1
   129   127   129      1
   130   127   130      1
   131   128   131      1
   132   128   132      1
   133   128   133      1
   134   133   134      1
   135   133   135      1
   136   133   136      1
   137   134   137      1
   138   134   138      1
   139   134   139      1
   140   139   140      1
   141   139   141      1
   142   139   142      1
   143   140   143      1
   144   140   144      1
   145   140   145      1
   146   145   146      1
   147   145   147      1
   148   145   148      1
   149   146   149      1
   150   146   150      1
   151   146   151      1
   152   151   152      1
   153   151   153      1
   154   151   154      1
   155   152   155      1
   156   152   156      1
   157   152   157      1
   158   157   158      1
   159   157   159      1
   160   157   160      1
   161   158   161      1
   162   158   162      1
   163   158   163      1
   164   163   164      1
   165   163   165      1
   166   163   166      1
   167   164   167      1
   168   164   168      1
   169   164   169      1
   170   169   170      1
   171   169   171      1
   172   169   172      1
   173   170   173      1
   174   170   174      1
   175   170   175      1
   176   175   176      1
   177   175   177      1
   178   175   178      1
   179   176   179      1
   180   176   180      1
   181   176   181      1
   182   181   182      1
   183   181   183      1
   184   181   184      1
   185   182   185      1
   186   182   186      1
   187   182   187      1
   188   187   188      1
   189   187   189      1
   190   187   190      1
   191   188   191      1
   192   188   192      1
   193   188   193      1
   194   193   194      1
   195   193   195      1
   196   193   196      1
   197   194   197      1
   198   194   198      1
   199   194   199      1
   200   199   200      1
   201   199   201      1
   202   199   202      1
   203   200   203      1
   204   200   204      1
   205   200   205      1
   206   205   206      1
   207   205   207      1
   208   205   208      1
   209   206   209      1
   210   206   210      1
   211   206   211      1
   212   211   212      1
   213   211   213      1
   214   211   214      1
   215   212   215      1
   216   212   216      1
   217   212   217      1
   218   217   218      1
   219   217   219      1
   220   217   220      1
   221   218   221      1
   222   218   222      1
   223   218   223      1
   224   223   224      1
   225   223   225      1
   226   223   226      1
   227   224   227      1
   228   224   228      1
   229   224   229      1
   230   229   230      1
   231   229   231      1
   232   229   232      1
   233   230   233      1
   234   230   234      1
   235   230   235      1
   236   235   236      1
   237   235   237      1
   238   235   238      1
   239   236   239      1
   240   236   240      1
   241   236   241      1
   242   241   242      1
   243   241   243      1
   244   241   244      1
   245   242   245      1
   246   242   246      1
   247   242   247      1
   248   247   248      1
   249   247   249      1
   250   247   250      1
   251   248   251      1
   252   248   252      1
   253   248   253      1
   254   253   254      1
   255   253   255      1
   256   253   256      1
   257   254   257      1
   258   254   258      1
   259   254   259      1
   260   259   260      1
   261   259   261      1
   262   259   262      1
   263   260   263      1
   264   260   264      1
   265   260   265      1
   266   265   266      1
   267   265   267      1
   268   265   268      1
   269   266   269      1
   270   266   270      1
   271   266   271      1
   272   271   272      1
   273   271   273      1
   274   271   274      1
   275   272   275      1
   276   272   276      1
   277   272   277      1
   278   277   278      1
   279   277   279      1
   280   277   280      1
   281   278   281      1
   282   278   282      1
   283   278   283      1
   284   283   284      1
   285   283   285      1
   286   283   286      1
   287   284   287      1
   288   284   288      1
   289   284   289      1
   290   289   290      1
   291   289   291      1
   292   289   292      1
   293   290   293      1
   294   290   294      1
   295   290   295      1
   296   295   296      1
   297   295   297      1
   298   295   298      1
   299   296   299      1
   300   296   300      1
   301   296   301      1
   302   301   302      1
   303   301   303      1
   304   301   304      1
   305   302   305      1
   306   302   306      1
   307   302   307      1
   308   307   308      1
   309   307   309      1
   310   307   310      1
   311   308   311      1
   312   308   312      1
   313   308   313      1
   314   313   314      1
   315   313   315      1
   316   313   316      1
   317   314   317      1
   318   314   318      1
   319   314   319      1
   320   319   320      1
   321   319   321      1
   322   319   322      1
   323   320   323      1
   324   320   324      1
   325   320   325      1
   326   325   326      1
   327   325   327      1
   328   325   328      1
   329   326   329      1
   330   326   330      1
   331   326   331      1
   332   331   332      1
   333   331   333      1
   334   331   334      1
   335   332   335      1
   336   332   336      1
   337   332   337      1
   338   337   338      1
   339   337   339      1
   340   337   340      1
   341   338   341      1
   342   338   342      1
   343   338   343      1
   344   343   344      1
   345   343   345      1
   346   343   346      1
   347   344   347      1
   348   344   348      1
   349   344   349      1
   350   349   350      1
   351   349   351      1
   352   349   352      1
   353   350   353      1
   354   350   354      1
   355   350   355      1
   356   355   356      1
   357   355   357      1
   358   355   358      1
   359   356   359      1
   360   356   360      1
   361   356   361      1
   362   361   362      1
   363   361   363      1
   364   361   364      1
   365   362   365      1
   366   362   366      1
   367   362   367      1
   368   367   368      1
   369   367   369      1
   370   367   370      1
   371   368   371      1
   372   368   372      1
   373   368   373      1
   374   373   374      1
   375   373   375      1
   376   373   376      1
   377   374   377      1
   378   374   378      1
   379   374   379      1
   380   379   380      1
   381   379   381      1
   382   379   382      1
   383   380   383      1
   384   380   384      1
   385   380   385      1
   386   385   386      1
   387   385   387      1
   388   385   388      1
   389   386   389      1
   390   386   390      1
   391   386   391      1
   392   391   392      1
   393   391   393      1
   394   391   394      1
   395   392   395      1
   396   392   396      1
   397   392   397      1
   398   397   398      1
   399   397   399      1
   400   397   400      1
   401   398   401      1
   402   398   402      1
   403   398   403      1
   404   403   404      1
   405   403   405      1
   406   403   406      1
   407   404   407      1
   408   404   408      1
   409   404   409      1
   410   409   410      1
   411   409   411      1
   412   409   412      1
   413   410   413      1
   414   410   414      1
   415   410   415      1
   416   415   416      1
   417   415   417      1
   418   415   418      1
   419   416   419      1
   420   416   420      1
   421   416   421      1
   422   421   422      1
   423   421   423      1
   424   421   424      1
   425   422   425      1
   426   422   426      1
   427   422   427      1
   428   427   428      1
   429   427   429      1
   430   427   430      1
   431   428   431      1
   432   428   432      1
   433   428   433      1
   434   433   434      1
   435   433   435      1
   436   433   436      1
   437   434   437      1
   438   434   438      1
   439   434   439      1
   440   439   440      1
   441   439   441      1
   442   439   442      1
   443   440   443      1
   444   440   444      1
   445   440   445      1
   446   445   446      1
   447   445   447      1
   448   445   448      1
   449   446   449      1
   450   446   450      1
   451   446   451      1
   452   451   452      1
   453   451   453      1
   454   451   454      1
   455   452   455      1
   456   452   456      1
   457   452   457      1
   458   457   458      1
   459   457   459      1
   460   457   460      1
   461   458   461      1
   462   458   462      1
   463   458   463      1
   464   463   464      1
   465   463   465      1
   466   463   466      1
   467   464   467      1
   468   464   468      1
   469   464   469      1
   470   469   470      1
   471   469   471      1
   472   469   472      1
   473   470   473      1
   474   470   474      1
   475   470   475      1
   476   475   476      1
   477   475   477      1
   478   475   478      1
   479   476   479      1
   480   476   480      1
   481   476   481      1
   482   481   482      1
   483   481   483      1
   484   481   484      1
   485   482   485      1
   486   482   486      1
   487   482   487      1
   488   487   488      1
   489   487   489      1
   490   487   490      1
   491   488   491      1
   492   488   492      1
   493   488   493      1
   494   493   494      1
   495   493   495      1
   496   493   496      1
   497   494   497      1
   498   494   498      1
   499   494   499      1
   500   499   500      1
   501   499   501      1
   502   499   502      1
   503   500   503      1
   504   500   504      1
   505   500   505      1
   506   505   506      1
   507   505   507      1
   508   505   508      1
   509   506   509      1
   510   506   510      1
   511   506   511      1
   512   511   512      1
   513   511   513      1
   514   511   514      1
   515   512   515      1
   516   512   516      1
   517   512   517      1
   518   517   518      1
   519   517   519      1
   520   517   520      1
   521   518   521      1
   522   518   522      1
   523   518   523      1
   524   523   524      1
   525   523   525      1
   526   523   526      1
   527   524   527      1
   528   524   528      1
   529   524   529      1
   530   529   530      1
   531   529   531      1
   532   529   532      1
   533   530   533      1
   534   530   534      1
   535   530   535      1
   536   535   536      1
   537   535   537      1
   538   535   538      1
   539   536   539      1
   540   536   540      1
   541   536   541      1
   542   541   542      1
   543   541   543      1
   544   541   544      1
   545   542   545      1
   546   542   546      1
   547   542   547      1
   548   547   548      1
   549   547   549      1
   550   547   550      1
   551   548   551      1
   552   548   552      1
   553   548   553      1
   554   553   554      1
   555   553   555      1
   556   553   556      1
   557   554   557      1
   558   554   558      1
   559   554   559      1
   560   559   560      1
   561   559   561      1
   562   559   562      1
   563   560   563      1
   564   560   564      1
   565   560   565      1
   566   565   566      1
   567   565   567      1
   568   565   568      1
   569   566   569      1
   570   566   570      1
   571   566   571      1
   572   571   572      1
   573   571   573      1
   574   571   574      1
   575   572   575      1
   576   572   576      1
   577   572   577      1
   578   577   578      1
   579   577   579      1
   580   577   580      1
   581   578   581      1
   582   578   582      1
   583   578   583      1
   584   583   584      1
   585   583   585      1
   586   583   586      1
   587   584   587      1
   588   584   588      1
   589   584   589      1
   590   589   590      1
   591   589   591      1
   592   589   592      1
   593   590   593      1
   594   590   594      1
   595   590   595      1
   596   595   596      1
   597   595   597      1
   598   595   598      1
   599   596   599      1
   600   596   600      1
   601   596   601      1
   602   601   602      1
   603   601   603      1
   604   601   604      1
   605   602   605      1
   606   602   606      1
   607   602   607      1
   608   607   608      1
   609   607   609      1
   610   607   610      1
   611   608   611      1
   612   608   612      1
   613   608   613      1
   614   613   614      1
   615   613   615      1
   616   613   616      1
   617   614   617      1
   618   614   618      1
   619   614   619      1
   620   619   620      1
   621   619   621      1
   622   619   622      1
   623   620   623      1
   624   620   624      1
   625   620   625      1
   626   625   626      1
   627   625   627      1
   628   625   628      1
   629   626   629      1
   630   626   630      1
   631   626   631      1
   632   631   632      1
   633   631   633      1
   634   631   634      1
   635   632   635      1
   636   632   636      1
   637   632   637      1
   638   637   638      1
   639   637   639      1
   640   637   640      1
   641   638   641      1
   642   638   642      1
   643   638   643      1
   644   643   644      1
   645   643   645      1
   646   643   646      1
   647   644   647      1
   648   644   648      1
   649   644   649      1
   650   649   650      1
   651   649   651      1
   652   649   652      1
   653   650   653      1
   654   650   654      1
   655   650   655      1
   656   655   656      1
   657   655   657      1
   658   655   658      1
   659   656   659      1
   660   656   660      1
   661   656   661      1
   662   661   662      1
   663   661   663      1
   664   661   664      1
   665   662   665      1
   666   662   666      1
   667   662   667      1
   668   667   668      1
   669   667   669      1
   670   667   670      1
   671   668   671      1
   672   668   672      1
   673   668   673      1
   674   673   674      1
   675   673   675      1
   676   673   676      1
   677   674   677      1
   678   674   678      1
   679   674   679      1
   680   679   680      1
   681   679   681      1
   682   679   682      1
   683   680   683      1
   684   680   684      1
   685   680   685      1
   686   685   686      1
   687   685   687      1
   688   685   688      1
   689   686   689      1
   690   686   690      1
   691   686   691      1
   692   691   692      1
   693   691   693      1
   694   691   694      1
   695   692   695      1
   696   692   696      1
   697   692   697      1
   698   697   698      1
   699   697   699      1
   700   697   700      1
   701   698   701      1
   702   698   702      1
   703   698   703      1
   704   703   704      1
   705   703   705      1
   706   703   706      1
   707   704   707      1
   708   704   708      1
   709   704   709      1
   710   709   710      1
   711   709   711      1
   712   709   712      1
   713   710   713      1
   714   710   714      1
   715   710   715      1
   716   715   716      1
   717   715   717      1
   718   715   718      1
   719   716   719      1
   720   716   720      1
   721   716   721      1
   722   721   722      1
   723   721   723      1
   724   721   724      1
   725   722   725      1
   726   722   726      1
   727   722   727      1
   728   727   728      1
   729   727   729      1
   730   727   730      1
   731   728   731      1
   732   728   732      1
   733   728   733      1
   734   733   734      1
   735   733   735      1
   736   733   736      1
   737   734   737      1
   738   734   738      1
   739   734   739      1
   740   739   740      1
   741   739   741      1
   742   739   742      1
   743   740   743      1
   744   740   744      1
   745   740   745      1
   746   745   746      1
   747   745   747      1
   748   745   748      1
   749   746   749      1
   750   746   750      1
   751   746   751      1
   752   751   752      1
   753   751   753      1
   754   751   754      1
   755   752   755      1
   756   752   756      1
   757   752   757      1
   758   757   758      1
   759   757   759      1
   760   757   760      1
   761   758   761      1
   762   758   762      1
   763   758   763      1
   764   763   764      1
   765   763   765      1
   766   763   766      1
   767   764   767      1
   768   764   768      1
   769   764   769      1
   770   769   770      1
   771   769   771      1
   772   769   772      1
   773   770   773      1
   774   770   774      1
   775   770   775      1
   776   775   776      1
   777   775   777      1
   778   775   778      1
   779   776   779      1
   780   776   780      1
   781   776   781      1
   782   781   782      1
   783   781   783      1
   784   781   784      1
   785   782   785      1
   786   782   786      1
   787   782   787      1
   788   787   788      1
   789   787   789      1
   790   787   790      1
   791   788   791      1
   792   788   792      1
   793   788   793      1
   794   793   794      1
   795   793   795      1
   796   793   796      1
   797   794   797      1
   798   794   798      1
   799   794   799      1
   800   799   800      1
   801   799   801      1
   802   799   802      1
   803   800   803      1
   804   800   804      1
   805   800   805      1
   806   805   806      1
   807   805   807      1
   808   805   808      1
   809   806   809      1
   810   806   810      1
   811   806   811      1
   812   811   812      1
   813   811   813      1
   814   811   814      1
   815   812   815      1
   816   812   816      1
   817   812   817      1
   818   817   818      1
   819   817   819      1
   820   817   820      1
   821   818   821      1
   822   818   822      1
   823   818   823      1
   824   823   824      1
   825   823   825      1
   826   823   826      1
   827   824   827      1
   828   824   828      1
   829   824   829      1
   830   829   830      1
   831   829   831      1
   832   829   832      1
   833   830   833      1
   834   830   834      1
   835   830   835      1
   836   835   836      1
   837   835   837      1
   838   835   838      1
   839   836   839      1
   840   836   840      1
   841   836   841      1
   842   841   842      1
   843   841   843      1
   844   841   844      1
   845   842   845      1
   846   842   846      1
   847   842   847      1
   848   847   848      1
   849   847   849      1
   850   847   850      1
   851   848   851      1
   852   848   852      1
   853   848   853      1
   854   853   854      1
   855   853   855      1
   856   853   856      1
   857   854   857      1
   858   854   858      1
   859   854   859      1
   860   859   860      1
   861   859   861      1
   862   859   862      1
   863   860   863      1
   864   860   864      1
   865   860   865      1
   866   865   866      1
   867   865   867      1
   868   865   868      1
   869   866   869      1
   870   866   870      1
   871   866   871      1
   872   871   872      1
   873   871   873      1
   874   871   874      1
   875   872   875      1
   876   872   876      1
   877   872   877      1
   878   877   878      1
   879   877   879      1
   880   877   880      1
   881   878   881      1
   882   878   882      1
   883   878   883      1
   884   883   884      1
   885   883   885      1
   886   883   886      1
   887   884   887      1
   888   884   888      1
   889   884   889      1
   890   889   890      1
   891   889   891      1
   892   889   892      1
   893   890   893      1
   894   890   894      1
   895   890   895      1
   896   895   896      1
   897   895   897      1
   898   895   898      1
   899   896   899      1
   900   896   900      1
   901   896   901      1
   902   901   902      1
   903   901   903      1
   904   901   904      1
   905   902   905      1
   906   902   906      1
   907   902   907      1
   908   907   908      1
   909   907   909      1
   910   907   910      1
   911   908   911      1
   912   908   912      1
   913   908   913      1
   914   913   914      1
   915   913   915      1
   916   913   916      1
   917   914   917      1
   918   914   918      1
   919   914   919      1
   920   919   920      1
   921   919   921      1
   922   919   922      1
   923   920   923      1
   924   920   924      1
   925   920   925      1
   926   925   926      1
   927   925   927      1
   928   925   928      1
   929   926   929      1
   930   926   930      1
   931   926   931      1
   932   931   932      1
   933   931   933      1
   934   931   934      1
   935   932   935      1
   936   932   936      1
   937   932   937      1
   938   937   938      1
   939   937   939      1
   940   937   940      1
   941   938   941      1
   942   938   942      1
   943   938   943      1
   944   943   944      1
   945   943   945      1
   946   943   946      1
   947   944   947      1
   948   944   948      1
   949   944   949      1
   950   949   950      1
   951   949   951      1
   952   949   952      1
   953   950   953      1
   954   950   954      1
   955   950   955      1
   956   955   956      1
   957   955   957      1
   958   955   958      1
   959   956   959      1
   960   956   960      1
   961   956   961      1
   962   961   962      1
   963   961   963      1
   964   961   964      1
   965   962   965      1
   966   962   966      1
   967   962   967      1
   968   967   968      1
   969   967   969      1
   970   967   970      1
   971   968   971      1
   972   968   972      1
   973   968   973      1
   974   973   974      1
   975   973   975      1
   976   973   976      1
   977   974   977      1
   978   974   978      1
   979   974   979      1
   980   979   980      1
   981   979   981      1
   982   979   982      1
   983   980   983      1
   984   980   984      1
   985   980   985      1
   986   985   986      1
   987   985   987      1
   988   985   988      1
   989   986   989      1
   990   986   990      1
   991   986   991      1
   992   991   992      1
   993   991   993      1
   994   991   994      1
   995   992   995      1
   996   992   996      1
   997   992   997      1
   998   997   998      1
   999   997   999      1
  1000   997  1000      1
  1001   998  1001      1
  1002   998  1002      1
  1003   998  1003      1
  1004  1003  1004      1
  1005  1003  1005      1
  1006  1003  1006      1
  1007  1004  1007      1
  1008  1004  1008      1
  1009  1004  1009      1
  1010  1009  1010      1
  1011  1009  1011      1
  1012  1009  1012      1
  1013  1010  1013      1
  1014  1010  1014      1
  1015  1010  1015      1
  1016  1015  1016      1
  1017  1015  1017      1
  1018  1015  1018      1
  1019  1016  1019      1
  1020  1016  1020      1
  1021  1016  1021      1
  1022  1021  1022      1
  1023  1021  1023      1
  1024  1021  1024      1
  1025  1022  1025      1
  1026  1022  1026      1
  1027  1022  1027      1
  1028  1027  1028      1
  1029  1027  1029      1
  1030  1027  1030      1
  1031  1028  1031      1
  1032  1028  1032      1
  1033  1028  1033      1
  1034  1033  1034      1
  1035  1033  1035      1
  1036  1033  1036      1
  1037  1034  1037      1
  1038  1034  1038      1
  1039  1034  1039      1
  1040  1039  1040      1
  1041  1039  1041      1
  1042  1039  1042      1
  1043  1040  1043      1
  1044  1040  1044      1
  1045  1040  1045      1
  1046  1045  1046      1
  1047  1045  1047      1
  1048  1045  1048      1
  1049  1046  1049      1
  1050  1046  1050      1
  1051  1046  1051      1
  1052  1051  1052      1
  1053  1051  1053      1
  1054  1051  1054      1
  1055  1052  1055      1
  1056  1052  1056      1
  1057  1052  1057      1
  1058  1057  1058      1
  1059  1057  1059      1
  1060  1057  1060      1
  1061  1058  1061      1
  1062  1058  1062      1
  1063  1058  1063      1
  1064  1063  1064      1
  1065  1063  1065      1
  1066  1063  1066      1
  1067  1064  1067      1
  1068  1064  1068      1
  1069  1064  1069      1
  1070  1069  1070      1
  1071  1069  1071      1
  1072  1069  1072      1
  1073  1070  1073      1
  1074  1070  1074      1
  1075  1070  1075      1
  1076  1075  1076      1
  1077  1075  1077      1
  1078  1075  1078      1
  1079  1076  1079      1
  1080  1076  1080      1
  1081  1076  1081      1
  1082  1081  1082      1
  1083  1081  1083      1
  1084  1081  1084      1
  1085  1082  1085      1
  1086  1082  1086      1
  1087  1082  1087      1
  1088  1087  1088      1
  1089  1087  1089      1
  1090  1087  1090      1
  1091  1088  1091      1
  1092  1088  1092      1
  1093  1088  1093      1
  1094  1093  1094      1
  1095  1093  1095      1
  1096  1093  1096      1
  1097  1094  1097      1
  1098  1094  1098      1
  1099  1094  1099      1
  1100  1099  1100      1
  1101  1099  1101      1
  1102  1099  1102      1
  1103  1100  1103      1
  1104  1100  1104      1
  1105  1100  1105      1
  1106  1105  1106      1
  1107  1105  1107      1
  1108  1105  1108      1
  1109  1106  1109      1
  1110  1106  1110      1
  1111  1106  1111      1
  1112  1111  1112      1
  1113  1111  1113      1
  1114  1111  1114      1
  1115  1112  1115      1
  1116  1112  1116      1
  1117  1112  1117      1
  1118  1117  1118      1
  1119  1117  1119      1
  1120  1117  1120      1
  1121  1118  1121      1
  1122  1118  1122      1
  1123  1118  1123      1
  1124  1123  1124      1
  1125  1123  1125      1
  1126  1123  1126      1
  1127  1124  1127      1
  1128  1124  1128      1
  1129  1124  1129      1
  1130  1129  1130      1
  1131  1129  1131      1
  1132  1129  1132      1
  1133  1130  1133      1
  1134  1130  1134      1
  1135  1130  1135      1
  1136  1135  1136      1
  1137  1135  1137      1
  1138  1135  1138      1
  1139  1136  1139      1
  1140  1136  1140      1
  1141  1136  1141      1
  1142  1141  1142      1
  1143  1141  1143      1
  1144  1141  1144      1
  1145  1142  1145      1
  1146  1142  1146      1
  1147  1142  1147      1
  1148  1147  1148      1
  1149  1147  1149      1
  1150  1147  1150      1
  1151  1148  1151      1
  1152  1148  1152      1
  1153  1148  1153      1
  1154  1153  1154      1
  1155  1153  1155      1
  1156  1153  1156      1
  1157  1154  1157      1
  1158  1154  1158      1
  1159  1154  1159      1
  1160  1159  1160      1
  1161  1159  1161      1
  1162  1159  1162      1
  1163  1160  1163      1
  1164  1160  1164      1
  1165  1160  1165      1
  1166  1165  1166      1
  1167  1165  1167      1
  1168  1165  1168      1
  1169  1166  1169      1
  1170  1166  1170      1
  1171  1166  1171      1
  1172  1171  1172      1
  1173  1171  1173      1
  1174  1171  1174      1
  1175  1172  1175      1
  1176  1172  1176      1
  1177  1172  1177      1
  1178  1177  1178      1
  1179  1177  1179      1
  1180  1177  1180      1
  1181  1178  1181      1
  1182  1178  1182      1
  1183  1178  1183      1
  1184  1183  1184      1
  1185  1183  1185      1
  1186  1183  1186      1
  1187  1184  1187      1
  1188  1184  1188      1
  1189  1184  1189      1
  1190  1189  1190      1
  1191  1189  1191      1
  1192  1189  1192      1
  1193  1190  1193      1
  1194  1190  1194      1
  1195  1190  1195      1
  1196  1195  1196      1
  1197  1195  1197      1
  1198  1195  1198      1
  1199  1196  1199      1
  1200  1196  1200      1
  1201  1196  1201      1
  1202  1201  1202      1
  1203  1201  1203      1
  1204  1201  1204      1
  1205  1202  1205      1
  1206  1202  1206      1
  1207  1202  1207      1
  1208  1207  1208      1
  1209  1207  1209      1
  1210  1207  1210      1
  1211  1208  1211      1
  1212  1208  1212      1
  1213  1208  1213      1
  1214  1213  1214      1
  1215  1213  1215      1
  1216  1213  1216      1
  1217  1214  1217      1
  1218  1214  1218      1
  1219  1214  1219      1
  1220  1219  1220      1
  1221  1219  1221      1
  1222  1219  1222      1
  1223  1220  1223      1
  1224  1220  1224      1
  1225  1220  1225      1
  1226  1225  1226      1
  1227  1225  1227      1
  1228  1225  1228      1
  1229  1226  1229      1
  1230  1226  1230      1
  1231  1226  1231      1
  1232  1231  1232      1
  1233  1231  1233      1
  1234  1231  1234      1
  1235  1232  1235      1
  1236  1232  1236      1
  1237  1232  1237      1
  1238  1237  1238      1
  1239  1237  1239      1
  1240  1237  1240      1
  1241  1238  1241      1
  1242  1238  1242      1
  1243  1238  1243      1
  1244  1243  1244      1
  1245  1243  1245      1
  1246  1243  1246      1
  1247  1244  1247      1
  1248  1244  1248      1
  1249  1244  1249      1
  1250  1249  1250      1
  1251  1249  1251      1
  1252  1249  1252      1
  1253  1250  1253      1
  1254  1250  1254      1
  1255  1250  1255      1
  1256  1255  1256      1
  1257  1255  1257      1
  1258  1255  1258      1
  1259  1256  1259      1
  1260  1256  1260      1
  1261  1256  1261      1
  1262  1261  1262      1
  1263  1261  1263      1
  1264  1261  1264      1
  1265  1262  1265      1
  1266  1262  1266      1
  1267  1262  1267      1
  1268  1267  1268      1
  1269  1267  1269      1
  1270  1267  1270      1
  1271  1268  1271      1
  1272  1268  1272      1
  1273  1268  1273      1
  1274  1273  1274      1
  1275  1273  1275      1
  1276  1273  1276      1
  1277  1274  1277      1
  1278  1274  1278      1
  1279  1274  1279      1
  1280  1279  1280      1
  1281  1279  1281      1
  1282  1279  1282      1
  1283  1280  1283      1
  1284  1280  1284      1
  1285  1280  1285      1
  1286  1285  1286      1
  1287  1285  1287      1
  1288  1285  1288      1
  1289  1286  1289      1
  1290  1286  1290      1
  1291  1286  1291      1
  1292  1291  1292      1
  1293  1291  1293      1
  1294  1291  1294      1
  1295  1292  1295      1
  1296  1292  1296      1
  1297  1292  1297      1
  1298  1297  1298      1
  1299  1297  1299      1
  1300  1297  1300      1
  1301  1298  1301      1
  1302  1298  1302      1
  1303  1298  1303      1
  1304  1303  1304      1
  1305  1303  1305      1
  1306  1303  1306      1
  1307  1304  1307      1
  1308  1304  1308      1
  1309  1304  1309      1
  1310  1309  1310      1
  1311  1309  1311      1
  1312  1309  1312      1
  1313  1310  1313      1
  1314  1310  1314      1
  1315  1310  1315      1
  1316  1315  1316      1
  1317  1315  1317      1
  1318  1315  1318      1
  1319  1316  1319      1
  1320  1316  1320      1
  1321  1316  1321      1
  1322  1321  1322      1
  1323  1321  1323      1
  1324  1321  1324      1
  1325  1322  1325      1
  1326  1322  1326      1
  1327  1322  1327      1
  1328  1327  1328      1
  1329  1327  1329      1
  1330  1327  1330      1
  1331  1328  1331      1
  1332  1328  1332      1
  1333  1328  1333      1
  1334  1333  1334      1
  1335  1333  1335      1
  1336  1333  1336      1
  1337  1334  1337      1
  1338  1334  1338      1
  1339  1334  1339      1
  1340  1339  1340      1
  1341  1339  1341      1
  1342  1339  1342      1
  1343  1340  1343      1
  1344  1340  1344      1
  1345  1340  1345      1
  1346  1345  1346      1
  1347  1345  1347      1
  1348  1345  1348      1
  1349  1346  1349      1
  1350  1346  1350      1
  1351  1346  1351      1
  1352  1351  1352      1
  1353  1351  1353      1
  1354  1351  1354      1
  1355  1352  1355      1
  1356  1352  1356      1
  1357  1352  1357      1
  1358  1357  1358      1
  1359  1357  1359      1
  1360  1357  1360      1
  1361  1358  1361      1
  1362  1358  1362      1
  1363  1358  1363      1
  1364  1363  1364      1
  1365  1363  1365      1
  1366  1363  1366      1
  1367  1364  1367      1
  1368  1364  1368      1
  1369  1364  1369      1
  1370  1369  1370      1
  1371  1369  1371      1
  1372  1369  1372      1
  1373  1370  1373      1
  1374  1370  1374      1
  1375  1370  1375      1
  1376  1375  1376      1
  1377  1375  1377      1
  1378  1375  1378      1
  1379  1376  1379      1
  1380  1376  1380      1
  1381  1376  1381      1
  1382  1381  1382      1
  1383  1381  1383      1
  1384  1381  1384      1
  1385  1382  1385      1
  1386  1382  1386      1
  1387  1382  1387      1
  1388  1387  1388      1
  1389  1387  1389      1
  1390  1387  1390      1
  1391  1388  1391      1
  1392  1388  1392      1
  1393  1388  1393      1
  1394  1393  1394      1
  1395  1393  1395      1
  1396  1393  1396      1
  1397  1394  1397      1
  1398  1394  1398      1
  1399  1394  1399      1
  1400  1399  1400      1
  1401  1399  1401      1
  1402  1399  1402      1
  1403  1400  1403      1
  1404  1400  1404      1
  1405  1400  1405      1
  1406  1405  1406      1
  1407  1405  1407      1
  1408  1405  1408      1
  1409  1406  1409      1
  1410  1406  1410      1
  1411  1406  1411      1
  1412  1411  1412      1
  1413  1411  1413      1
  1414  1411  1414      1
  1415  1412  1415      1
  1416  1412  1416      1
  1417  1412  1417      1
  1418  1417  1418      1
  1419  1417  1419      1
  1420  1417  1420      1
  1421  1418  1421      1
  1422  1418  1422      1
  1423  1418  1423      1
  1424  1423  1424      1
  1425  1423  1425      1
  1426  1423  1426      1
  1427  1424  1427      1
  1428  1424  1428      1
  1429  1424  1429      1
  1430  1429  1430      1
  1431  1429  1431      1
  1432  1429  1432      1
  1433  1430  1433      1
  1434  1430  1434      1
  1435  1430  1435      1
  1436  1435  1436      1
  1437  1435  1437      1
  1438  1435  1438      1
  1439  1436  1439      1
  1440  1436  1440      1
  1441  1436  1441      1
  1442  1441  1442      1
  1443  1441  1443      1
  1444  1441  1444      1
  1445  1442  1445      1
  1446  1442  1446      1
  1447  1442  1447      1
  1448  1447  1448      1
  1449  1447  1449      1
  1450  1447  1450      1
  1451  1448  1451      1
  1452  1448  1452      1
  1453  1448  1453      1
  1454  1453  1454      1
  1455  1453  1455      1
  1456  1453  1456      1
  1457  1454  1457      1
  1458  1454  1458      1
  1459  1454  1459      1
  1460  1459  1460      1
  1461  1459  1461      1
  1462  1459  1462      1
  1463  1460  1463      1
  1464  1460  1464      1
  1465  1460  1465      1
  1466  1465  1466      1
  1467  1465  1467      1
  1468  1465  1468      1
  1469  1466  1469      1
  1470  1466  1470      1
  1471  1466  1471      1
  1472  1471  1472      1
  1473  1471  1473      1
  1474  1471  1474      1
  1475  1472  1475      1
  1476  1472  1476      1
  1477  1472  1477      1
  1478  1477  1478      1
  1479  1477  1479      1
  1480  1477  1480      1
  1481  1478  1481      1
  1482  1478  1482      1
  1483  1478  1483      1
  1484  1483  1484      1
  1485  1483  1485      1
  1486  1483  1486      1
  1487  1484  1487      1
  1488  1484  1488      1
  1489  1484  1489      1
  1490  1489  1490      1
  1491  1489  1491      1
  1492  1489  1492      1
  1493  1490  1493      1
  1494  1490  1494      1
  1495  1490  1495      1
  1496  1495  1496      1
  1497  1495  1497      1
  1498  1495  1498      1
  1499  1496  1499      1
  1500  1496  1500      1
  1501  1496  1501      1
  1502  1501  1502      1
  1503  1501  1503      1
  1504  1501  1504      1
  1505  1502  1505      1
  1506  1502  1506      1
  1507  1502  1507      1
  1508  1507  1508      1
  1509  1507  1509      1
  1510  1507  1510      1
  1511  1508  1511      1
  1512  1508  1512      1
  1513  1508  1513      1
  1514  1513  1514      1
  1515  1513  1515      1
  1516  1513  1516      1
  1517  1514  1517      1
  1518  1514  1518      1
  1519  1514  1519      1
  1520  1519  1520      1
  1521  1519  1521      1
  1522  1519  1522      1
  1523  1520  1523      1
  1524  1520  1524      1
  1525  1520  1525      1
  1526  1525  1526      1
  1527  1525  1527      1
  1528  1525  1528      1
  1529  1526  1529      1
  1530  1526  1530      1
  1531  1526  1531      1
  1532  1531  1532      1
  1533  1531  1533      1
  1534  1531  1534      1
  1535  1532  1535      1
  1536  1532  1536      1
  1537  1532  1537      1
  1538  1537  1538      1
  1539  1537  1539      1
  1540  1537  1540      1
  1541  1538  1541      1
  1542  1538  1542      1
  1543  1538  1543      1
  1544  1543  1544      1
  1545  1543  1545      1
  1546  1543  1546      1
  1547  1544  1547      1
  1548  1544  1548      1
  1549  1544  1549      1
  1550  1549  1550      1
  1551  1549  1551      1
  1552  1549  1552      1
  1553  1550  1553      1
  1554  1550  1554      1
  1555  1550  1555      1
  1556  1555  1556      1
  1557  1555  1557      1
  1558  1555  1558      1
  1559  1556  1559      1
  1560  1556  1560      1
  1561  1556  1561      1
  1562  1561  1562      1
  1563  1561  1563      1
  1564  1561  1564      1
  1565  1562  1565      1
  1566  1562  1566      1
  1567  1562  1567      1
  1568  1567  1568      1
  1569  1567  1569      1
  1570  1567  1570      1
  1571  1568  1571      1
  1572  1568  1572      1
  1573  1568  1573      1
  1574  1573  1574      1
  1575  1573  1575      1
  1576  1573  1576      1
  1577  1574  1577      1
  1578  1574  1578      1
  1579  1574  1579      1
  1580  1579  1580      1
  1581  1579  1581      1
  1582  1579  1582      1
  1583  1580  1583      1
  1584  1580  1584      1
  1585  1580  1585      1
  1586  1585  1586      1
  1587  1585  1587      1
  1588  1585  1588      1
  1589  1586  1589      1
  1590  1586  1590      1
  1591  1586  1591      1
  1592  1591  1592      1
  1593  1591  1593      1
  1594  1591  1594      1
  1595  1592  1595      1
  1596  1592  1596      1
  1597  1592  1597      1
  1598  1597  1598      1
  1599  1597  1599      1
  1600  1597  1600      1
  1601  1598  1601      1
  1602  1598  1602      1
  1603  1598  1603      1
  1604  1603  1604      1
  1605  1603  1605      1
  1606  1603  1606      1
  1607  1604  1607      1
  1608  1604  1608      1
  1609  1604  1609      1
  1610  1609  1610      1
  1611  1609  1611      1
  1612  1609  1612      1
  1613  1610  1613      1
  1614  1610  1614      1
  1615  1610  1615      1
  1616  1615  1616      1
  1617  1615  1617      1
  1618  1615  1618      1
  1619  1616  1619      1
  1620  1616  1620      1
  1621  1616  1621      1
  1622  1621  1622      1
  1623  1621  1623      1
  1624  1621  1624      1
  1625  1622  1625      1
  1626  1622  1626      1
  1627  1622  1627      1
  1628  1627  1628      1
  1629  1627  1629      1
  1630  1627  1630      1
  1631  1628  1631      1
  1632  1628  1632      1
  1633  1628  1633      1
  1634  1633  1634      1
  1635  1633  1635      1
  1636  1633  1636      1
  1637  1634  1637      1
  1638  1634  1638      1
  1639  1634  1639      1
  1640  1639  1640      1
  1641  1639  1641      1
  1642  1639  1642      1
  1643  1640  1643      1
  1644  1640  1644      1
  1645  1640  1645      1
  1646  1645  1646      1
  1647  1645  1647      1
  1648  1645  1648      1
  1649  1646  1649      1
  1650  1646  1650      1
  1651  1646  1651      1
  1652  1651  1652      1
  1653  1651  1653      1
  1654  1651  1654      1
  1655  1652  1655      1
  1656  1652  1656      1
  1657  1652  1657      1
  1658  1657  1658      1
  1659  1657  1659      1
  1660  1657  1660      1
  1661  1658  1661      1
  1662  1658  1662      1
  1663  1658  1663      1
  1664  1663  1664      1
  1665  1663  1665      1
  1666  1663  1666      1
  1667  1664  1667      1
  1668  1664  1668      1
  1669  1664  1669      1
  1670  1669  1670      1
  1671  1669  1671      1
  1672  1669  1672      1
  1673  1670  1673      1
  1674  1670  1674      1
  1675  1670  1675      1
  1676  1675  1676      1
  1677  1675  1677      1
  1678  1675  1678      1
  1679  1676  1679      1
  1680  1676  1680      1
  1681  1676  1681      1
  1682  1681  1682      1
  1683  1681  1683      1
  1684  1681  1684      1
  1685  1682  1685      1
  1686  1682  1686      1
  1687  1682  1687      1
  1688  1687  1688      1
  1689  1687  1689      1
  1690  1687  1690      1
  1691  1688  1691      1
  1692  1688  1692      1
  1693  1688  1693      1
  1694  1693  1694      1
  1695  1693  1695      1
  1696  1693  1696      1
  1697  1694  1697      1
  1698  1694  1698      1
  1699  1694  1699      1
  1700  1699  1700      1
  1701  1699  1701      1
  1702  1699  1702      1
  1703  1700  1703      1
  1704  1700  1704      1
  1705  1700  1705      1
  1706  1705  1706      1
  1707  1705  1707      1
  1708  1705  1708      1
  1709  1706  1709      1
  1710  1706  1710      1
  1711  1706  1711      1
  1712  1711  1712      1
  1713  1711  1713      1
  1714  1711  1714      1
  1715  1712  1715      1
  1716  1712  1716      1
  1717  1712  1717      1
  1718  1717  1718      1
  1719  1717  1719      1
  1720  1717  1720      1
  1721  1718  1721      1
  1722  1718  1722      1
  1723  1718  1723      1
  1724  1723  1724      1
  1725  1723  1725      1
  1726  1723  1726      1
  1727  1724  1727      1
  1728  1724  1728      1
  1729  1724  1729      1
  1730  1729  1730      1
  1731  1729  1731      1
  1732  1729  1732      1
  1733  1730  1733      1
  1734  1730  1734      1
  1735  1730  1735      1
  1736  1735  1736      1
  1737  1735  1737      1
  1738  1735  1738      1
  1739  1736  1739      1
  1740  1736  1740      1
  1741  1736  1741      1
  1742  1741  1742      1
  1743  1741  1743      1
  1744  1741  1744      1
  1745  1742  1745      1
  1746  1742  1746      1
  1747  1742  1747      1
  1748  1747  1748      1
  1749  1747  1749      1
  1750  1747  1750      1
  1751  1748  1751      1
  1752  1748  1752      1
  1753  1748  1753      1
  1754  1753  1754      1
  1755  1753  1755      1
  1756  1753  1756      1
  1757  1754  1757      1
  1758  1754  1758      1
  1759  1754  1759      1
  1760  1759  1760      1
  1761  1759  1761      1
  1762  1759  1762      1
  1763  1760  1763      1
  1764  1760  1764      1
  1765  1760  1765      1
  1766  1765  1766      1
  1767  1765  1767      1
  1768  1765  1768      1
  1769  1766  1769      1
  1770  1766  1770      1
  1771  1766  1771      1
  1772  1771  1772      1
  1773  1771  1773      1
  1774  1771  1774      1
  1775  1772  1775      1
  1776  1772  1776      1
  1777  1772  1777      1
  1778  1777  1778      1
  1779  1777  1779      1
  1780  1777  1780      1
  1781  1778  1781      1
  1782  1778  1782      1
  1783  1778  1783      1
  1784  1783  1784      1
  1785  1783  1785      1
  1786  1783  1786      1
  1787  1784  1787      1
  1788  1784  1788      1
  1789  1784  1789      1
  1790  1789  1790      1
  1791  1789  1791      1
  1792  1789  1792      1
  1793  1790  1793      1
  1794  1790  1794      1
  1795  1790  1795      1
  1796  1795  1796      1
  1797  1795  1797      1
  1798  1795  1798      1
  1799  1796  1799      1
  1800  1796  1800      1
  1801  1796  1801      1
  1802  1801  1802      1
  1803  1801  1803      1
  1804  1801  1804      1
  1805  1802  1805      1
  1806  1802  1806      1
  1807  1802  1807      1
  1808  1807  1808      1
  1809  1807  1809      1
  1810  1807  1810      1
  1811  1808  1811      1
  1812  1808  1812      1
  1813  1808  1813      1
  1814  1813  1814      1
  1815  1813  1815      1
  1816  1813  1816      1
  1817  1814  1817      1
  1818  1814  1818      1
  1819  1814  1819      1
  1820  1819  1820      1
  1821  1819  1821      1
  1822  1819  1822      1
  1823  1820  1823      1
  1824  1820  1824      1
  1825  1820  1825      1
  1826  1825  1826      1
  1827  1825  1827      1
  1828  1825  1828      1
  1829  1826  1829      1
  1830  1826  1830      1
  1831  1826  1831      1
  1832  1831  1832      1
  1833  1831  1833      1
  1834  1831  1834      1
  1835  1832  1835      1
  1836  1832  1836      1
  1837  1832  1837      1
  1838  1837  1838      1
  1839  1837  1839      1
  1840  1837  1840      1
  1841  1838  1841      1
  1842  1838  1842      1
  1843  1838  1843      1
  1844  1843  1844      1
  1845  1843  1845      1
  1846  1843  1846      1
  1847  1844  1847      1
  1848  1844  1848      1
  1849  1844  1849      1
  1850  1849  1850      1
  1851  1849  1851      1
  1852  1849  1852      1
  1853  1850  1853      1
  1854  1850  1854      1
  1855  1850  1855      1
  1856  1855  1856      1
  1857  1855  1857      1
  1858  1855  1858      1
  1859  1856  1859      1
  1860  1856  1860      1
  1861  1856  1861      1
  1862  1861  1862      1
  1863  1861  1863      1
  1864  1861  1864      1
  1865  1862  1865      1
  1866  1862  1866      1
  1867  1862  1867      1
  1868  1867  1868      1
  1869  1867  1869      1
  1870  1867  1870      1
  1871  1868  1871      1
  1872  1868  1872      1
  1873  1868  1873      1
  1874  1873  1874      1
  1875  1873  1875      1
  1876  1873  1876      1
  1877  1874  1877      1
  1878  1874  1878      1
  1879  1874  1879      H
