###
### Created by PolyChef-cpp17 on Thu Feb 27 19:40:28 2025
###

@<TRIPOS>MOLECULE
NO_INFO
440 439 1 0 0
SMALL
USER_CHARGES


@<TRIPOS>ATOM
      1 C          99.2798   70.5087  120.6551 C.3       0        0    0.0000
      2 C          98.4513   69.3575  120.0742 C.3       0        0    0.0000
      3 H          98.8875   71.4702  120.3014 H         0        0    0.0000
      4 H         100.3162   70.4421  120.3014 H         0        0    0.0000
      5 H          98.4067   68.5275  120.7902 H         0        0    0.0000
      6 H          97.4177   69.6850  119.9068 H         0        0    0.0000
      7 C          99.0385   68.8266  118.7211 C.3       1        0    0.0000
      8 C          99.6348   69.9502  117.8661 C.3       1        0    0.0000
      9 H          99.8052   68.0731  118.9399 H         1        0    0.0000
     10 H          98.2423   68.3143  118.1669 H         1        0    0.0000
     11 H          98.9434   70.8011  117.8278 H         1        0    0.0000
     12 H         100.5623   70.3182  118.3221 H         1        0    0.0000
     13 C          99.9425   69.4829  116.4017 C.3       2        0    0.0000
     14 C          99.8885   70.6409  115.3991 C.3       2        0    0.0000
     15 H         100.9338   69.0135  116.3813 H         2        0    0.0000
     16 H          99.2205   68.7067  116.1191 H         2        0    0.0000
     17 H          98.9702   71.2229  115.5456 H         2        0    0.0000
     18 H         100.7271   71.3270  115.5713 H         2        0    0.0000
     19 C          99.9398   70.1433  113.9134 C.3       3        0    0.0000
     20 C          99.8326   71.2971  112.9103 C.3       3        0    0.0000
     21 H         100.8765   69.5942  113.7565 H         3        0    0.0000
     22 H          99.1242   69.4275  113.7520 H         3        0    0.0000
     23 H          98.9007   71.8525  113.0740 H         3        0    0.0000
     24 H         100.6540   72.0076  113.0651 H         3        0    0.0000
     25 C          99.8692   70.7981  111.4247 C.3       4        0    0.0000
     26 C          99.8641   71.9575  110.4223 C.3       4        0    0.0000
     27 H         100.7644   70.1805  111.2811 H         4        0    0.0000
     28 H          99.0049   70.1456  111.2495 H         4        0    0.0000
     29 H          98.9622   72.5673  110.5570 H         4        0    0.0000
     30 H         100.7210   72.6175  110.6061 H         4        0    0.0000
     31 C          99.9199   71.4590  108.9371 C.3       5        0    0.0000
     32 C          98.8552   72.1269  108.0599 C.3       5        0    0.0000
     33 H         100.9200   71.6604  108.5337 H         5        0    0.0000
     34 H          99.7886   70.3699  108.9245 H         5        0    0.0000
     35 H          97.8990   72.1699  108.5960 H         5        0    0.0000
     36 H          99.1421   73.1634  107.8436 H         5        0    0.0000
     37 C          98.6409   71.3686  106.7047 C.3       6        0    0.0000
     38 C          98.9739   72.2431  105.4908 C.3       6        0    0.0000
     39 H          99.2657   70.4669  106.7014 H         6        0    0.0000
     40 H          97.5988   71.0300  106.6498 H         6        0    0.0000
     41 H          98.0815   72.7931  105.1673 H         6        0    0.0000
     42 H          99.7254   72.9945  105.7633 H         6        0    0.0000
     43 C          99.5147   71.4023  104.2833 C.3       7        0    0.0000
     44 C          98.9123   71.8507  102.9472 C.3       7        0    0.0000
     45 H         100.6077   71.4913  104.2519 H         7        0    0.0000
     46 H          99.2898   70.3434  104.4609 H         7        0    0.0000
     47 H          97.8239   71.9512  103.0402 H         7        0    0.0000
     48 H          99.2979   72.8408  102.6741 H         7        0    0.0000
     49 C          99.2297   70.8468  101.7858 C.3       8        0    0.0000
     50 C          99.0489   71.4826  100.4029 C.3       8        0    0.0000
     51 H         100.2590   70.4855  101.9020 H         8        0    0.0000
     52 H          98.5755   69.9719  101.8860 H         8        0    0.0000
     53 H          98.0002   71.7685  100.2546 H         8        0    0.0000
     54 H          99.6397   72.4042  100.3325 H         8        0    0.0000
     55 C          99.4781   70.5174   99.2446 C.3       9        0    0.0000
     56 C          99.2316   71.1262   97.8598 C.3       9        0    0.0000
     57 H         100.5408   70.2724   99.3640 H         9        0    0.0000
     58 H          98.9244   69.5757   99.3455 H         9        0    0.0000
     59 H          98.1721   71.3878   97.7471 H         9        0    0.0000
     60 H          99.7994   72.0587   97.7524 H         9        0    0.0000
     61 C          99.6374   70.1512   96.7014 C.3      10        0    0.0000
     62 C          99.3895   70.7594   95.3166 C.3      10        0    0.0000
     63 H         100.6971   69.8905   96.8135 H        10        0    0.0000
     64 H          99.0703   69.2183   96.8094 H        10        0    0.0000
     65 H          98.3300   71.0214   95.2050 H        10        0    0.0000
     66 H          99.9576   71.6916   95.2080 H        10        0    0.0000
     67 C          99.7934   69.7836   94.1581 C.3      11        0    0.0000
     68 C          99.5403   70.3898   92.7733 C.3      11        0    0.0000
     69 H         100.8538   69.5248   94.2674 H        11        0    0.0000
     70 H          99.2282   68.8499   94.2690 H        11        0    0.0000
     71 H          98.4802   70.6504   92.6648 H        11        0    0.0000
     72 H         100.1070   71.3224   92.6617 H        11        0    0.0000
     73 C          99.9416   69.4129   91.6148 C.3      12        0    0.0000
     74 C          99.6876   70.0186   90.2301 C.3      12        0    0.0000
     75 H         101.0019   69.1529   91.7229 H        12        0    0.0000
     76 H          99.3754   68.4799   91.7269 H        12        0    0.0000
     77 H          98.6256   70.2706   90.1188 H        12        0    0.0000
     78 H         100.2468   70.9561   90.1212 H        12        0    0.0000
     79 C         100.1004   69.0466   89.0716 C.3      13        0    0.0000
     80 C          99.8424   69.6507   87.6868 C.3      13        0    0.0000
     81 H         101.1631   68.7971   89.1811 H        13        0    0.0000
     82 H          99.5434   68.1079   89.1822 H        13        0    0.0000
     83 H          98.7779   69.8900   87.5732 H        13        0    0.0000
     84 H         100.3907   70.5949   87.5802 H        13        0    0.0000
     85 C         100.2696   68.6848   86.5283 C.3      14        0    0.0000
     86 C         100.0154   69.2905   85.1436 C.3      14        0    0.0000
     87 H         101.3334   68.4430   86.6436 H        14        0    0.0000
     88 H          99.7191   67.7417   86.6332 H        14        0    0.0000
     89 H          98.9378   69.4129   84.9786 H        14        0    0.0000
     90 H         100.4590   70.2921   85.0839 H        14        0    0.0000
     91 C         100.6058   68.4069   83.9911 C.3      15        0    0.0000
     92 C         100.3522   69.0130   82.6064 C.3      15        0    0.0000
     93 H         101.6834   68.2841   84.1563 H        15        0    0.0000
     94 H         100.1619   67.4055   84.0505 H        15        0    0.0000
     95 H          99.5209   69.7272   82.6549 H        15        0    0.0000
     96 H         101.2331   69.5769   82.2755 H        15        0    0.0000
     97 C         100.0183   67.9212   81.5322 C.3      16        0    0.0000
     98 C          99.6420   68.5341   80.1787 C.3      16        0    0.0000
     99 H         100.8866   67.2607   81.4176 H        16        0    0.0000
    100 H          99.1956   67.2984   81.9048 H        16        0    0.0000
    101 H         100.0197   69.5620   80.1131 H        16        0    0.0000
    102 H         100.1173   67.9714   79.3657 H        16        0    0.0000
    103 C          98.0921   68.5494   79.9438 C.3      17        0    0.0000
    104 C          97.7306   68.7081   78.4628 C.3      17        0    0.0000
    105 H          97.6656   67.6184   80.3373 H        17        0    0.0000
    106 H          97.6540   69.3682   80.5278 H        17        0    0.0000
    107 H          97.8420   69.7563   78.1587 H        17        0    0.0000
    108 H          98.4222   68.1249   77.8422 H        17        0    0.0000
    109 C          96.2643   68.2461   78.1563 C.3      18        0    0.0000
    110 C          95.9319   68.3215   76.6620 C.3      18        0    0.0000
    111 H          96.1340   67.2191   78.5193 H        18        0    0.0000
    112 H          95.5692   68.8730   78.7284 H        18        0    0.0000
    113 H          96.0121   69.3576   76.3107 H        18        0    0.0000
    114 H          96.6585   67.7360   76.0851 H        18        0    0.0000
    115 C          94.4909   67.7910   76.3465 C.3      19        0    0.0000
    116 C          94.2953   67.4928   74.8559 C.3      19        0    0.0000
    117 H          94.3101   66.8851   76.9382 H        19        0    0.0000
    118 H          93.7587   68.5366   76.6802 H        19        0    0.0000
    119 H          94.3883   68.4168   74.2720 H        19        0    0.0000
    120 H          95.0821   66.8155   74.5013 H        19        0    0.0000
    121 C          92.8991   66.8451   74.5579 C.3      20        0    0.0000
    122 C          92.7189   66.5109   73.0730 C.3      20        0    0.0000
    123 H          92.7943   65.9364   75.1634 H        20        0    0.0000
    124 H          92.1119   67.5351   74.8864 H        20        0    0.0000
    125 H          92.8189   67.4205   72.4679 H        20        0    0.0000
    126 H          93.5089   65.8248   72.7433 H        20        0    0.0000
    127 C          91.3254   65.8571   72.7760 C.3      21        0    0.0000
    128 C          91.1227   65.5745   71.2834 C.3      21        0    0.0000
    129 H          91.2423   64.9257   73.3499 H        21        0    0.0000
    130 H          90.5361   66.5247   73.1431 H        21        0    0.0000
    131 H          91.2777   66.4921   70.7024 H        21        0    0.0000
    132 H          91.8682   64.8500   70.9330 H        21        0    0.0000
    133 C          89.6909   65.0162   70.9735 C.3      22        0    0.0000
    134 C          89.4376   64.8698   69.4691 C.3      22        0    0.0000
    135 H          89.5748   64.0452   71.4708 H        22        0    0.0000
    136 H          88.9457   65.6883   71.4168 H        22        0    0.0000
    137 H          90.0860   64.0889   69.0527 H        22        0    0.0000
    138 H          88.4038   64.5488   69.2912 H        22        0    0.0000
    139 C          89.6927   66.2065   68.6908 C.3      23        0    0.0000
    140 C          89.4650   66.0532   67.1829 C.3      23        0    0.0000
    141 H          89.0304   66.9824   69.0943 H        23        0    0.0000
    142 H          90.7205   66.5377   68.8843 H        23        0    0.0000
    143 H          90.3908   65.7250   66.6942 H        23        0    0.0000
    144 H          88.7155   65.2750   66.9929 H        23        0    0.0000
    145 C          88.9873   67.3887   66.5154 C.3      24        0    0.0000
    146 C          88.6773   67.2145   65.0246 C.3      24        0    0.0000
    147 H          88.0970   67.7499   67.0450 H        24        0    0.0000
    148 H          89.7653   68.1501   66.6514 H        24        0    0.0000
    149 H          89.6105   67.1465   64.4518 H        24        0    0.0000
    150 H          88.1375   66.2737   64.8600 H        24        0    0.0000
    151 C          87.8192   68.3959   64.4541 C.3      25        0    0.0000
    152 C          86.9083   67.9501   63.3050 C.3      25        0    0.0000
    153 H          87.2181   68.8212   65.2674 H        25        0    0.0000
    154 H          88.4942   69.1904   64.1125 H        25        0    0.0000
    155 H          87.4754   67.9170   62.3665 H        25        0    0.0000
    156 H          86.5425   66.9322   63.4881 H        25        0    0.0000
    157 C          85.6777   68.9032   63.1184 C.3      26        0    0.0000
    158 C          84.4824   68.1897   62.4772 C.3      26        0    0.0000
    159 H          85.3930   69.3088   64.0972 H        26        0    0.0000
    160 H          85.9822   69.7568   62.5001 H        26        0    0.0000
    161 H          84.7380   67.8672   61.4603 H        26        0    0.0000
    162 H          84.2380   67.2824   63.0434 H        26        0    0.0000
    163 C          83.2100   69.1031   62.4128 C.3      27        0    0.0000
    164 C          82.1038   68.4977   61.5417 C.3      27        0    0.0000
    165 H          82.8393   69.2656   63.4325 H        27        0    0.0000
    166 H          83.5001   70.0866   62.0227 H        27        0    0.0000
    167 H          81.7433   67.5624   61.9877 H        27        0    0.0000
    168 H          81.2442   69.1780   61.4986 H        27        0    0.0000
    169 C          82.5910   68.2058   60.0806 C.3      28        0    0.0000
    170 C          81.5112   67.5234   59.2336 C.3      28        0    0.0000
    171 H          82.8939   69.1511   59.6134 H        28        0    0.0000
    172 H          83.4876   67.5754   60.1261 H        28        0    0.0000
    173 H          81.4964   66.4460   59.4399 H        28        0    0.0000
    174 H          80.5207   67.9096   59.5046 H        28        0    0.0000
    175 C          81.7354   67.7407   57.6974 C.3      29        0    0.0000
    176 C          80.4171   67.9318   56.9393 C.3      29        0    0.0000
    177 H          82.3816   68.6157   57.5547 H        29        0    0.0000
    178 H          82.2798   66.8779   57.2940 H        29        0    0.0000
    179 H          80.0213   66.9590   56.6221 H        29        0    0.0000
    180 H          79.6641   68.3779   57.6007 H        29        0    0.0000
    181 C          80.5851   68.8451   55.6763 C.3      30        0    0.0000
    182 C          79.3973   69.7943   55.4838 C.3      30        0    0.0000
    183 H          81.5138   69.4203   55.7769 H        30        0    0.0000
    184 H          80.7039   68.2071   54.7918 H        30        0    0.0000
    185 H          78.6074   69.2964   54.9078 H        30        0    0.0000
    186 H          78.9617   70.0539   56.4567 H        30        0    0.0000
    187 C          79.8058   71.1149   54.7446 C.3      31        0    0.0000
    188 C          79.1059   72.3474   55.3278 C.3      31        0    0.0000
    189 H          80.8944   71.2345   54.8099 H        31        0    0.0000
    190 H          79.5633   71.0135   53.6795 H        31        0    0.0000
    191 H          78.1688   72.5375   54.7900 H        31        0    0.0000
    192 H          78.8366   72.1664   56.3758 H        31        0    0.0000
    193 C          80.0020   73.6314   55.2510 C.3      32        0    0.0000
    194 C          79.8813   74.5000   56.5080 C.3      32        0    0.0000
    195 H          81.0453   73.3262   55.1034 H        32        0    0.0000
    196 H          79.7148   74.2105   54.3646 H        32        0    0.0000
    197 H          79.0489   75.2061   56.3989 H        32        0    0.0000
    198 H          79.6504   73.8727   57.3779 H        32        0    0.0000
    199 C          81.1932   75.3067   56.8009 C.3      33        0    0.0000
    200 C          80.9307   76.8099   56.9450 C.3      33        0    0.0000
    201 H          81.6518   74.9154   57.7174 H        33        0    0.0000
    202 H          81.9082   75.1259   55.9887 H        33        0    0.0000
    203 H          80.7338   77.2534   55.9612 H        33        0    0.0000
    204 H          80.0326   76.9783   57.5520 H        33        0    0.0000
    205 C          82.1362   77.5627   57.6065 C.3      34        0    0.0000
    206 C          81.7457   78.9576   58.1072 C.3      34        0    0.0000
    207 H          82.5175   76.9575   58.4383 H        34        0    0.0000
    208 H          82.9495   77.6399   56.8744 H        34        0    0.0000
    209 H          81.6845   79.6565   57.2639 H        34        0    0.0000
    210 H          80.7489   78.9277   58.5645 H        34        0    0.0000
    211 C          82.7661   79.5195   59.1562 C.3      35        0    0.0000
    212 C          82.2060   80.7210   59.9255 C.3      35        0    0.0000
    213 H          83.0331   78.7169   59.8548 H        35        0    0.0000
    214 H          83.6887   79.8034   58.6351 H        35        0    0.0000
    215 H          82.4774   81.6537   59.4157 H        35        0    0.0000
    216 H          81.1099   80.6788   59.9428 H        35        0    0.0000
    217 C          82.7327   80.7798   61.4008 C.3      36        0    0.0000
    218 C          82.1457   81.9616   62.1805 C.3      36        0    0.0000
    219 H          82.4835   79.8368   61.9031 H        36        0    0.0000
    220 H          83.8275   80.8475   61.3830 H        36        0    0.0000
    221 H          82.4236   81.8890   63.2393 H        36        0    0.0000
    222 H          82.5663   82.9039   61.8083 H        36        0    0.0000
    223 C          80.5832   82.0278   62.0716 C.3      37        0    0.0000
    224 C          79.9927   83.1836   62.8868 C.3      37        0    0.0000
    225 H          80.3065   82.1326   61.0152 H        37        0    0.0000
    226 H          80.1642   81.0734   62.4138 H        37        0    0.0000
    227 H          80.2459   84.1425   62.4179 H        37        0    0.0000
    228 H          78.8977   83.1166   62.8956 H        37        0    0.0000
    229 C          80.5103   83.1923   64.3665 C.3      38        0    0.0000
    230 C          80.1409   84.4843   65.1035 C.3      38        0    0.0000
    231 H          80.0910   82.3259   64.8929 H        38        0    0.0000
    232 H          81.5994   83.0606   64.3609 H        38        0    0.0000
    233 H          79.1178   84.7850   64.8458 H        38        0    0.0000
    234 H          80.1564   84.3167   66.1875 H        38        0    0.0000
    235 C          81.1154   85.6633   64.7605 C.3      39        0    0.0000
    236 C          80.7662   86.9461   65.5231 C.3      39        0    0.0000
    237 H          82.1414   85.3537   64.9952 H        39        0    0.0000
    238 H          81.0814   85.8473   63.6795 H        39        0    0.0000
    239 H          81.6054   87.2427   66.1644 H        39        0    0.0000
    240 H          80.6022   87.7702   64.8178 H        39        0    0.0000
    241 C          79.4856   86.7791   66.4117 C.3      40        0    0.0000
    242 C          78.6357   88.0539   66.4511 C.3      40        0    0.0000
    243 H          78.8917   85.9429   66.0224 H        40        0    0.0000
    244 H          79.7937   86.5008   67.4272 H        40        0    0.0000
    245 H          78.2835   88.2397   67.4734 H        40        0    0.0000
    246 H          79.2442   88.9207   66.1651 H        40        0    0.0000
    247 C          77.3949   87.9704   65.4966 C.3      41        0    0.0000
    248 C          76.2197   88.8179   65.9962 C.3      41        0    0.0000
    249 H          77.6969   88.2995   64.4946 H        41        0    0.0000
    250 H          77.0895   86.9207   65.4047 H        41        0    0.0000
    251 H          76.0388   88.6203   67.0601 H        41        0    0.0000
    252 H          76.4619   89.8845   65.9107 H        41        0    0.0000
    253 C          74.9007   88.5337   65.1981 C.3      42        0    0.0000
    254 C          73.7924   89.5387   65.5311 C.3      42        0    0.0000
    255 H          75.1240   88.5620   64.1244 H        42        0    0.0000
    256 H          74.5640   87.5142   65.4231 H        42        0    0.0000
    257 H          73.6563   90.2385   64.6973 H        42        0    0.0000
    258 H          72.8371   89.0154   65.6623 H        42        0    0.0000
    259 C          74.1032   90.3567   66.8317 C.3      43        0    0.0000
    260 C          73.1052   91.4988   67.0520 C.3      43        0    0.0000
    261 H          74.0893   89.6741   67.6905 H        43        0    0.0000
    262 H          75.1227   90.7560   66.7631 H        43        0    0.0000
    263 H          72.8463   91.9625   66.0920 H        43        0    0.0000
    264 H          72.1718   91.1065   67.4743 H        43        0    0.0000
    265 C          73.6687   92.6035   68.0110 C.3      44        0    0.0000
    266 C          72.5941   93.6133   68.4287 C.3      44        0    0.0000
    267 H          74.0940   92.1181   68.8982 H        44        0    0.0000
    268 H          74.4954   93.1203   67.5079 H        44        0    0.0000
    269 H          72.4569   94.3642   67.6407 H        44        0    0.0000
    270 H          71.6292   93.1063   68.5522 H        44        0    0.0000
    271 C          72.9551   94.3455   69.7670 C.3      45        0    0.0000
    272 C          71.8678   95.3356   70.1990 C.3      45        0    0.0000
    273 H          73.1119   93.5936   70.5503 H        45        0    0.0000
    274 H          73.9104   94.8690   69.6371 H        45        0    0.0000
    275 H          70.9933   94.7922   70.5779 H        45        0    0.0000
    276 H          72.2332   95.9591   71.0244 H        45        0    0.0000
    277 C          71.4129   96.2684   69.0241 C.3      46        0    0.0000
    278 C          70.0714   96.9518   69.3110 C.3      46        0    0.0000
    279 H          72.1900   97.0231   68.8506 H        46        0    0.0000
    280 H          71.3425   95.6720   68.1060 H        46        0    0.0000
    281 H          70.1590   97.5965   70.1943 H        46        0    0.0000
    282 H          69.7937   97.6023   68.4724 H        46        0    0.0000
    283 C          68.9177   95.9182   69.5522 C.3      47        0    0.0000
    284 C          67.5762   96.6016   69.8393 C.3      47        0    0.0000
    285 H          68.8301   95.2736   68.6688 H        47        0    0.0000
    286 H          69.1955   95.2675   70.3907 H        47        0    0.0000
    287 H          67.1825   97.0575   68.9224 H        47        0    0.0000
    288 H          66.8374   95.8585   70.1640 H        47        0    0.0000
    289 C          67.6976   97.7088   70.9424 C.3      48        0    0.0000
    290 C          66.4836   98.6441   70.9626 C.3      48        0    0.0000
    291 H          67.8148   97.2234   71.9192 H        48        0    0.0000
    292 H          68.6139   98.2855   70.7653 H        48        0    0.0000
    293 H          66.6396   99.4779   70.2669 H        48        0    0.0000
    294 H          65.5905   98.1087   70.6174 H        48        0    0.0000
    295 C          66.2042   99.2242   72.3919 C.3      49        0    0.0000
    296 C          64.8334   99.9032   72.4854 C.3      49        0    0.0000
    297 H          66.2711   98.4094   73.1234 H        49        0    0.0000
    298 H          66.9965   99.9399   72.6441 H        49        0    0.0000
    299 H          64.9288  100.9746   72.2698 H        49        0    0.0000
    300 H          64.1559   99.4887   71.7287 H        49        0    0.0000
    301 C          64.1792   99.7287   73.8993 C.3      50        0    0.0000
    302 C          62.8548  100.4898   74.0245 C.3      50        0    0.0000
    303 H          64.0176   98.6596   74.0846 H        50        0    0.0000
    304 H          64.8868  100.0772   74.6618 H        50        0    0.0000
    305 H          62.9890  101.5324   73.7106 H        50        0    0.0000
    306 H          62.1049  100.0528   73.3534 H        50        0    0.0000
    307 C          62.2948  100.4710   75.4885 C.3      51        0    0.0000
    308 C          61.3855  101.6703   75.7781 C.3      51        0    0.0000
    309 H          61.7441   99.5351   75.6445 H        51        0    0.0000
    310 H          63.1385  100.4607   76.1897 H        51        0    0.0000
    311 H          61.8403  102.5898   75.3891 H        51        0    0.0000
    312 H          60.4266  101.5493   75.2592 H        51        0    0.0000
    313 C          61.1112  101.8516   77.3109 C.3      52        0    0.0000
    314 C          60.4267  103.1865   77.6246 C.3      52        0    0.0000
    315 H          60.4886  101.0184   77.6596 H        52        0    0.0000
    316 H          62.0634  101.7810   77.8512 H        52        0    0.0000
    317 H          61.0075  104.0156   77.2018 H        52        0    0.0000
    318 H          59.4372  103.2219   77.1522 H        52        0    0.0000
    319 C          60.2596  103.4208   79.1656 C.3      53        0    0.0000
    320 C          59.6322  104.7830   79.4814 C.3      53        0    0.0000
    321 H          59.6401  102.6160   79.5805 H        53        0    0.0000
    322 H          61.2434  103.3396   79.6443 H        53        0    0.0000
    323 H          60.2437  105.5870   79.0534 H        53        0    0.0000
    324 H          58.6419  104.8582   79.0154 H        53        0    0.0000
    325 C          59.4850  105.0263   81.0230 C.3      54        0    0.0000
    326 C          60.0074  106.4035   81.4463 C.3      54        0    0.0000
    327 H          58.4278  104.9243   81.2977 H        54        0    0.0000
    328 H          60.0272  104.2373   81.5589 H        54        0    0.0000
    329 H          60.8536  106.6960   80.8122 H        54        0    0.0000
    330 H          59.2283  107.1622   81.3015 H        54        0    0.0000
    331 C          60.4662  106.4301   82.9450 C.3      55        0    0.0000
    332 C          59.4477  107.1295   83.8519 C.3      55        0    0.0000
    333 H          60.6262  105.3991   83.2842 H        55        0    0.0000
    334 H          61.4371  106.9370   83.0087 H        55        0    0.0000
    335 H          59.7424  108.1739   84.0132 H        55        0    0.0000
    336 H          58.4642  107.1511   83.3664 H        55        0    0.0000
    337 C          59.3084  106.4231   85.2444 C.3      56        0    0.0000
    338 C          57.8521  106.3524   85.7168 C.3      56        0    0.0000
    339 H          59.7299  105.4128   85.1721 H        56        0    0.0000
    340 H          59.9162  106.9661   85.9788 H        56        0    0.0000
    341 H          57.5323  107.3304   86.0974 H        56        0    0.0000
    342 H          57.1940  106.1124   84.8726 H        56        0    0.0000
    343 C          57.6436  105.2799   86.8410 C.3      57        0    0.0000
    344 C          57.2204  105.9092   88.1729 C.3      57        0    0.0000
    345 H          56.8855  104.5605   86.5071 H        57        0    0.0000
    346 H          58.5764  104.7173   86.9703 H        57        0    0.0000
    347 H          57.4904  106.9723   88.1892 H        57        0    0.0000
    348 H          56.1300  105.8593   88.2828 H        57        0    0.0000
    349 C          57.8852  105.2000   89.4028 C.3      58        0    0.0000
    350 C          58.3387  106.1984   90.4736 C.3      58        0    0.0000
    351 H          57.1680  104.4889   89.8311 H        58        0    0.0000
    352 H          58.7412  104.6109   89.0511 H        58        0    0.0000
    353 H          58.9321  106.9988   90.0144 H        58        0    0.0000
    354 H          57.4662  106.6778   90.9345 H        58        0    0.0000
    355 C          59.1933  105.5169   91.5973 C.3      59        0    0.0000
    356 C          58.7487  105.9394   93.0019 C.3      59        0    0.0000
    357 H          59.1151  104.4280   91.4897 H        59        0    0.0000
    358 H          60.2487  105.7737   91.4437 H        59        0    0.0000
    359 H          59.0827  106.9635   93.2101 H        59        0    0.0000
    360 H          57.6534  105.9467   93.0635 H        59        0    0.0000
    361 C          59.3110  104.9886   94.1142 C.3      60        0    0.0000
    362 C          58.9804  105.4864   95.5255 C.3      60        0    0.0000
    363 H          58.8970  103.9840   93.9630 H        60        0    0.0000
    364 H          60.3977  104.9034   93.9903 H        60        0    0.0000
    365 H          59.3672  106.5034   95.6659 H        60        0    0.0000
    366 H          57.8930  105.5416   95.6598 H        60        0    0.0000
    367 C          59.5805  104.5595   96.6382 C.3      61        0    0.0000
    368 C          59.2581  105.0626   98.0496 C.3      61        0    0.0000
    369 H          59.1883  103.5441   96.5021 H        61        0    0.0000
    370 H          60.6671  104.4987   96.4997 H        61        0    0.0000
    371 H          59.6470  106.0795   98.1845 H        61        0    0.0000
    372 H          58.1714  105.1198   98.1894 H        61        0    0.0000
    373 C          59.8628  104.1386   99.1623 C.3      62        0    0.0000
    374 C          59.5333  104.6371  100.5736 C.3      62        0    0.0000
    375 H          59.4786  103.1204   99.0237 H        62        0    0.0000
    376 H          60.9501  104.0863   99.0261 H        62        0    0.0000
    377 H          59.9188  105.6548  100.7127 H        62        0    0.0000
    378 H          58.4460  104.6909  100.7093 H        62        0    0.0000
    379 C          60.1363  103.7121  101.6863 C.3      63        0    0.0000
    380 C          59.8091  104.2121  103.0977 C.3      63        0    0.0000
    381 H          59.7493  102.6948  101.5485 H        63        0    0.0000
    382 H          61.2234  103.6568  101.5494 H        63        0    0.0000
    383 H          60.1913  105.2314  103.2337 H        63        0    0.0000
    384 H          58.7220  104.2622  103.2364 H        63        0    0.0000
    385 C          60.4185  103.2912  104.2104 C.3      64        0    0.0000
    386 C          60.0864  103.7880  105.6217 C.3      64        0    0.0000
    387 H          60.0396  102.2710  104.0718 H        64        0    0.0000
    388 H          61.5061  103.2445  104.0742 H        64        0    0.0000
    389 H          60.4577  104.8113  105.7574 H        64        0    0.0000
    390 H          58.9989  103.8264  105.7608 H        64        0    0.0000
    391 C          60.7062  102.8740  106.7344 C.3      65        0    0.0000
    392 C          60.3734  103.3703  108.1458 C.3      65        0    0.0000
    393 H          60.3353  101.8505  106.5984 H        65        0    0.0000
    394 H          61.7937  102.8360  106.5957 H        65        0    0.0000
    395 H          60.7647  104.3851  108.2896 H        65        0    0.0000
    396 H          59.2859  103.4305  108.2767 H        65        0    0.0000
    397 C          60.9655  102.4381  109.2584 C.3      66        0    0.0000
    398 C          60.6351  102.9359  110.6698 C.3      66        0    0.0000
    399 H          60.5728  101.4238  109.1157 H        66        0    0.0000
    400 H          62.0528  102.3764  109.1262 H        66        0    0.0000
    401 H          59.5714  102.7761  110.8856 H        66        0    0.0000
    402 H          61.1977  102.3584  111.4137 H        66        0    0.0000
    403 C          60.9653  104.4571  110.8557 C.3      67        0    0.0000
    404 C          60.5621  104.9739  112.2411 C.3      67        0    0.0000
    405 H          62.0402  104.6076  110.6963 H        67        0    0.0000
    406 H          60.4480  105.0292  110.0756 H        67        0    0.0000
    407 H          61.4160  105.4673  112.7217 H        67        0    0.0000
    408 H          59.7738  105.7309  112.1454 H        67        0    0.0000
    409 C          60.0493  103.8259  113.1774 C.3      68        0    0.0000
    410 C          60.0616  104.2324  114.6551 C.3      68        0    0.0000
    411 H          59.0328  103.5481  112.8721 H        68        0    0.0000
    412 H          60.6771  102.9391  113.0259 H        68        0    0.0000
    413 H          60.9913  104.7649  114.8910 H        68        0    0.0000
    414 H          59.2390  104.9285  114.8606 H        68        0    0.0000
    415 C          59.9297  102.9977  115.6120 C.3      69        0    0.0000
    416 C          59.9524  103.4032  117.0899 C.3      69        0    0.0000
    417 H          58.9963  102.4695  115.3811 H        69        0    0.0000
    418 H          60.7480  102.2980  115.4013 H        69        0    0.0000
    419 H          59.0173  103.9121  117.3547 H        69        0    0.0000
    420 H          60.0156  102.5102  117.7240 H        69        0    0.0000
    421 C          61.1558  104.3493  117.4279 C.3      70        0    0.0000
    422 C          61.1603  104.7804  118.8987 C.3      70        0    0.0000
    423 H          62.0919  103.8313  117.1849 H        70        0    0.0000
    424 H          61.1058  105.2313  116.7775 H        70        0    0.0000
    425 H          62.1151  104.5107  119.3668 H        70        0    0.0000
    426 H          61.0711  105.8714  118.9711 H        70        0    0.0000
    427 C          59.9941  104.1228  119.7142 C.3      71        0    0.0000
    428 C          60.1934  104.2613  121.2275 C.3      71        0    0.0000
    429 H          59.0470  104.5888  119.4153 H        71        0    0.0000
    430 H          59.9243  103.0630  119.4394 H        71        0    0.0000
    431 H          60.8906  105.0809  121.4416 H        71        0    0.0000
    432 H          59.2432  104.5219  121.7097 H        71        0    0.0000
    433 C          60.7455  102.9457  121.8769 C.3      72        0    0.0000
    434 C          60.0809  102.6394  123.2236 C.3      72        0    0.0000
    435 H          60.5854  102.1133  121.1804 H        72        0    0.0000
    436 H          61.8305  103.0436  122.0065 H        72        0    0.0000
    437 H          60.2411  103.4717  123.9200 H        72        0    0.0000
    438 H          58.9960  102.5415  123.0939 H        72        0    0.0000
    439 H          60.4648  101.7246  123.6751 H        72        0    0.0000
    440 H          99.2798   70.5087  121.7450 H         0        0    0.0000
@<TRIPOS>BOND
     1     1     2      1
     2     1     3      1
     3     1     4      1
     4     1   440      H
     5     2     5      1
     6     2     6      1
     7     2     7      1
     8     7     8      1
     9     7     9      1
    10     7    10      1
    11     8    11      1
    12     8    12      1
    13     8    13      1
    14    13    14      1
    15    13    15      1
    16    13    16      1
    17    14    17      1
    18    14    18      1
    19    14    19      1
    20    19    20      1
    21    19    21      1
    22    19    22      1
    23    20    23      1
    24    20    24      1
    25    20    25      1
    26    25    26      1
    27    25    27      1
    28    25    28      1
    29    26    29      1
    30    26    30      1
    31    26    31      1
    32    31    32      1
    33    31    33      1
    34    31    34      1
    35    32    35      1
    36    32    36      1
    37    32    37      1
    38    37    38      1
    39    37    39      1
    40    37    40      1
    41    38    41      1
    42    38    42      1
    43    38    43      1
    44    43    44      1
    45    43    45      1
    46    43    46      1
    47    44    47      1
    48    44    48      1
    49    44    49      1
    50    49    50      1
    51    49    51      1
    52    49    52      1
    53    50    53      1
    54    50    54      1
    55    50    55      1
    56    55    56      1
    57    55    57      1
    58    55    58      1
    59    56    59      1
    60    56    60      1
    61    56    61      1
    62    61    62      1
    63    61    63      1
    64    61    64      1
    65    62    65      1
    66    62    66      1
    67    62    67      1
    68    67    68      1
    69    67    69      1
    70    67    70      1
    71    68    71      1
    72    68    72      1
    73    68    73      1
    74    73    74      1
    75    73    75      1
    76    73    76      1
    77    74    77      1
    78    74    78      1
    79    74    79      1
    80    79    80      1
    81    79    81      1
    82    79    82      1
    83    80    83      1
    84    80    84      1
    85    80    85      1
    86    85    86      1
    87    85    87      1
    88    85    88      1
    89    86    89      1
    90    86    90      1
    91    86    91      1
    92    91    92      1
    93    91    93      1
    94    91    94      1
    95    92    95      1
    96    92    96      1
    97    92    97      1
    98    97    98      1
    99    97    99      1
   100    97   100      1
   101    98   101      1
   102    98   102      1
   103    98   103      1
   104   103   104      1
   105   103   105      1
   106   103   106      1
   107   104   107      1
   108   104   108      1
   109   104   109      1
   110   109   110      1
   111   109   111      1
   112   109   112      1
   113   110   113      1
   114   110   114      1
   115   110   115      1
   116   115   116      1
   117   115   117      1
   118   115   118      1
   119   116   119      1
   120   116   120      1
   121   116   121      1
   122   121   122      1
   123   121   123      1
   124   121   124      1
   125   122   125      1
   126   122   126      1
   127   122   127      1
   128   127   128      1
   129   127   129      1
   130   127   130      1
   131   128   131      1
   132   128   132      1
   133   128   133      1
   134   133   134      1
   135   133   135      1
   136   133   136      1
   137   134   137      1
   138   134   138      1
   139   134   139      1
   140   139   140      1
   141   139   141      1
   142   139   142      1
   143   140   143      1
   144   140   144      1
   145   140   145      1
   146   145   146      1
   147   145   147      1
   148   145   148      1
   149   146   149      1
   150   146   150      1
   151   146   151      1
   152   151   152      1
   153   151   153      1
   154   151   154      1
   155   152   155      1
   156   152   156      1
   157   152   157      1
   158   157   158      1
   159   157   159      1
   160   157   160      1
   161   158   161      1
   162   158   162      1
   163   158   163      1
   164   163   164      1
   165   163   165      1
   166   163   166      1
   167   164   167      1
   168   164   168      1
   169   164   169      1
   170   169   170      1
   171   169   171      1
   172   169   172      1
   173   170   173      1
   174   170   174      1
   175   170   175      1
   176   175   176      1
   177   175   177      1
   178   175   178      1
   179   176   179      1
   180   176   180      1
   181   176   181      1
   182   181   182      1
   183   181   183      1
   184   181   184      1
   185   182   185      1
   186   182   186      1
   187   182   187      1
   188   187   188      1
   189   187   189      1
   190   187   190      1
   191   188   191      1
   192   188   192      1
   193   188   193      1
   194   193   194      1
   195   193   195      1
   196   193   196      1
   197   194   197      1
   198   194   198      1
   199   194   199      1
   200   199   200      1
   201   199   201      1
   202   199   202      1
   203   200   203      1
   204   200   204      1
   205   200   205      1
   206   205   206      1
   207   205   207      1
   208   205   208      1
   209   206   209      1
   210   206   210      1
   211   206   211      1
   212   211   212      1
   213   211   213      1
   214   211   214      1
   215   212   215      1
   216   212   216      1
   217   212   217      1
   218   217   218      1
   219   217   219      1
   220   217   220      1
   221   218   221      1
   222   218   222      1
   223   218   223      1
   224   223   224      1
   225   223   225      1
   226   223   226      1
   227   224   227      1
   228   224   228      1
   229   224   229      1
   230   229   230      1
   231   229   231      1
   232   229   232      1
   233   230   233      1
   234   230   234      1
   235   230   235      1
   236   235   236      1
   237   235   237      1
   238   235   238      1
   239   236   239      1
   240   236   240      1
   241   236   241      1
   242   241   242      1
   243   241   243      1
   244   241   244      1
   245   242   245      1
   246   242   246      1
   247   242   247      1
   248   247   248      1
   249   247   249      1
   250   247   250      1
   251   248   251      1
   252   248   252      1
   253   248   253      1
   254   253   254      1
   255   253   255      1
   256   253   256      1
   257   254   257      1
   258   254   258      1
   259   254   259      1
   260   259   260      1
   261   259   261      1
   262   259   262      1
   263   260   263      1
   264   260   264      1
   265   260   265      1
   266   265   266      1
   267   265   267      1
   268   265   268      1
   269   266   269      1
   270   266   270      1
   271   266   271      1
   272   271   272      1
   273   271   273      1
   274   271   274      1
   275   272   275      1
   276   272   276      1
   277   272   277      1
   278   277   278      1
   279   277   279      1
   280   277   280      1
   281   278   281      1
   282   278   282      1
   283   278   283      1
   284   283   284      1
   285   283   285      1
   286   283   286      1
   287   284   287      1
   288   284   288      1
   289   284   289      1
   290   289   290      1
   291   289   291      1
   292   289   292      1
   293   290   293      1
   294   290   294      1
   295   290   295      1
   296   295   296      1
   297   295   297      1
   298   295   298      1
   299   296   299      1
   300   296   300      1
   301   296   301      1
   302   301   302      1
   303   301   303      1
   304   301   304      1
   305   302   305      1
   306   302   306      1
   307   302   307      1
   308   307   308      1
   309   307   309      1
   310   307   310      1
   311   308   311      1
   312   308   312      1
   313   308   313      1
   314   313   314      1
   315   313   315      1
   316   313   316      1
   317   314   317      1
   318   314   318      1
   319   314   319      1
   320   319   320      1
   321   319   321      1
   322   319   322      1
   323   320   323      1
   324   320   324      1
   325   320   325      1
   326   325   326      1
   327   325   327      1
   328   325   328      1
   329   326   329      1
   330   326   330      1
   331   326   331      1
   332   331   332      1
   333   331   333      1
   334   331   334      1
   335   332   335      1
   336   332   336      1
   337   332   337      1
   338   337   338      1
   339   337   339      1
   340   337   340      1
   341   338   341      1
   342   338   342      1
   343   338   343      1
   344   343   344      1
   345   343   345      1
   346   343   346      1
   347   344   347      1
   348   344   348      1
   349   344   349      1
   350   349   350      1
   351   349   351      1
   352   349   352      1
   353   350   353      1
   354   350   354      1
   355   350   355      1
   356   355   356      1
   357   355   357      1
   358   355   358      1
   359   356   359      1
   360   356   360      1
   361   356   361      1
   362   361   362      1
   363   361   363      1
   364   361   364      1
   365   362   365      1
   366   362   366      1
   367   362   367      1
   368   367   368      1
   369   367   369      1
   370   367   370      1
   371   368   371      1
   372   368   372      1
   373   368   373      1
   374   373   374      1
   375   373   375      1
   376   373   376      1
   377   374   377      1
   378   374   378      1
   379   374   379      1
   380   379   380      1
   381   379   381      1
   382   379   382      1
   383   380   383      1
   384   380   384      1
   385   380   385      1
   386   385   386      1
   387   385   387      1
   388   385   388      1
   389   386   389      1
   390   386   390      1
   391   386   391      1
   392   391   392      1
   393   391   393      1
   394   391   394      1
   395   392   395      1
   396   392   396      1
   397   392   397      1
   398   397   398      1
   399   397   399      1
   400   397   400      1
   401   398   401      1
   402   398   402      1
   403   398   403      1
   404   403   404      1
   405   403   405      1
   406   403   406      1
   407   404   407      1
   408   404   408      1
   409   404   409      1
   410   409   410      1
   411   409   411      1
   412   409   412      1
   413   410   413      1
   414   410   414      1
   415   410   415      1
   416   415   416      1
   417   415   417      1
   418   415   418      1
   419   416   419      1
   420   416   420      1
   421   416   421      1
   422   421   422      1
   423   421   423      1
   424   421   424      1
   425   422   425      1
   426   422   426      1
   427   422   427      1
   428   427   428      1
   429   427   429      1
   430   427   430      1
   431   428   431      1
   432   428   432      1
   433   428   433      1
   434   433   434      1
   435   433   435      1
   436   433   436      1
   437   434   437      1
   438   434   438      1
   439   434   439      H
