###
### Created by PolyChef-cpp17 on Thu Feb 27 19:40:28 2025
###

@<TRIPOS>MOLECULE
NO_INFO
296 295 1 0 0
SMALL
USER_CHARGES


@<TRIPOS>ATOM
      1 C          19.2798  174.4287  120.6551 C.3       0        0    0.0000
      2 C          18.4513  173.2775  120.0742 C.3       0        0    0.0000
      3 H          18.8875  175.3902  120.3015 H         0        0    0.0000
      4 H          20.3162  174.3621  120.3014 H         0        0    0.0000
      5 H          18.4073  172.4472  120.7899 H         0        0    0.0000
      6 H          17.4175  173.6048  119.9075 H         0        0    0.0000
      7 C          19.0379  172.7473  118.7206 C.3       1        0    0.0000
      8 C          19.6366  173.8709  117.8673 C.3       1        0    0.0000
      9 H          19.8032  171.9920  118.9386 H         1        0    0.0000
     10 H          18.2410  172.2372  118.1655 H         1        0    0.0000
     11 H          18.9474  174.7236  117.8309 H         1        0    0.0000
     12 H          20.5653  174.2356  118.3234 H         1        0    0.0000
     13 C          19.9423  173.4054  116.4019 C.3       2        0    0.0000
     14 C          19.8927  174.5657  115.4016 C.3       2        0    0.0000
     15 H          20.9318  172.9322  116.3803 H         2        0    0.0000
     16 H          19.2173  172.6326  116.1178 H         2        0    0.0000
     17 H          18.9756  175.1496  115.5481 H         2        0    0.0000
     18 H          20.7327  175.2493  115.5765 H         2        0    0.0000
     19 C          19.9448  174.0711  113.9150 C.3       3        0    0.0000
     20 C          19.8176  175.2249  112.9142 C.3       3        0    0.0000
     21 H          20.8884  173.5353  113.7534 H         3        0    0.0000
     22 H          19.1386  173.3443  113.7556 H         3        0    0.0000
     23 H          18.8793  175.7676  113.0831 H         3        0    0.0000
     24 H          20.6304  175.9460  113.0661 H         3        0    0.0000
     25 C          19.8538  174.7286  111.4276 C.3       4        0    0.0000
     26 C          19.8916  175.8901  110.4283 C.3       4        0    0.0000
     27 H          20.7322  174.0858  111.2907 H         4        0    0.0000
     28 H          18.9727  174.1017  111.2426 H         4        0    0.0000
     29 H          19.0024  176.5208  110.5508 H         4        0    0.0000
     30 H          20.7610  176.5291  110.6270 H         4        0    0.0000
     31 C          19.9584  175.3937  108.9428 C.3       5        0    0.0000
     32 C          18.9169  176.0815  108.0533 C.3       5        0    0.0000
     33 H          20.9670  175.5788  108.5531 H         5        0    0.0000
     34 H          19.8086  174.3071  108.9260 H         5        0    0.0000
     35 H          17.9564  176.1457  108.5793 H         5        0    0.0000
     36 H          19.2275  177.1114  107.8378 H         5        0    0.0000
     37 C          18.7009  175.3248  106.6975 C.3       6        0    0.0000
     38 C          19.0740  176.1860  105.4858 C.3       6        0    0.0000
     39 H          19.3011  174.4066  106.7055 H         6        0    0.0000
     40 H          17.6509  175.0142  106.6292 H         6        0    0.0000
     41 H          18.2048  176.7690  105.1567 H         6        0    0.0000
     42 H          19.8514  176.9087  105.7629 H         6        0    0.0000
     43 C          19.5903  175.3253  104.2816 C.3       7        0    0.0000
     44 C          19.0168  175.7985  102.9413 C.3       7        0    0.0000
     45 H          20.6862  175.3706  104.2588 H         7        0    0.0000
     46 H          19.3219  174.2760  104.4561 H         7        0    0.0000
     47 H          17.9327  175.9435  103.0262 H         7        0    0.0000
     48 H          19.4447  176.7721  102.6718 H         7        0    0.0000
     49 C          19.3016  174.7830  101.7815 C.3       8        0    0.0000
     50 C          19.1337  175.4198  100.3976 C.3       8        0    0.0000
     51 H          20.3207  174.3932  101.8951 H         8        0    0.0000
     52 H          18.6234  173.9271  101.8866 H         8        0    0.0000
     53 H          18.0932  175.7359  100.2527 H         8        0    0.0000
     54 H          19.7509  176.3235  100.3220 H         8        0    0.0000
     55 C          19.5297  174.4392   99.2404 C.3       9        0    0.0000
     56 C          19.2965  175.0515   97.8549 C.3       9        0    0.0000
     57 H          20.5849  174.1628   99.3568 H         9        0    0.0000
     58 H          18.9484  173.5147   99.3458 H         9        0    0.0000
     59 H          18.2442  175.3410   97.7439 H         9        0    0.0000
     60 H          19.8888  175.9682   97.7442 H         9        0    0.0000
     61 C          19.6734  174.0635   96.6976 C.3      10        0    0.0000
     62 C          19.4405  174.6759   95.3121 C.3      10        0    0.0000
     63 H          20.7257  173.7738   96.8088 H        10        0    0.0000
     64 H          19.0809  173.1468   96.8082 H        10        0    0.0000
     65 H          18.3892  174.9696   95.2026 H        10        0    0.0000
     66 H          20.0363  175.5902   95.1999 H        10        0    0.0000
     67 C          19.8117  173.6857   94.1548 C.3      11        0    0.0000
     68 C          19.5852  174.3005   92.7693 C.3      11        0    0.0000
     69 H          20.8616  173.3880   94.2673 H        11        0    0.0000
     70 H          19.2122  172.7734   94.2641 H        11        0    0.0000
     71 H          18.5347  174.5954   92.6557 H        11        0    0.0000
     72 H          20.1824  175.2144   92.6611 H        11        0    0.0000
     73 C          19.9604  173.3118   91.6120 C.3      12        0    0.0000
     74 C          19.7265  173.9238   90.2265 C.3      12        0    0.0000
     75 H          21.0126  173.0215   91.7223 H        12        0    0.0000
     76 H          19.3675  172.3956   91.7236 H        12        0    0.0000
     77 H          18.6747  174.2158   90.1170 H        12        0    0.0000
     78 H          20.3209  174.8390   90.1143 H        12        0    0.0000
     79 C          20.0992  172.9341   89.0693 C.3      13        0    0.0000
     80 C          19.8674  173.5469   87.6837 C.3      13        0    0.0000
     81 H          21.1505  172.6407   89.1798 H        13        0    0.0000
     82 H          19.5035  172.0196   89.1805 H        13        0    0.0000
     83 H          18.8177  173.8468   87.5758 H        13        0    0.0000
     84 H          20.4685  174.4576   87.5699 H        13        0    0.0000
     85 C          20.2308  172.5537   86.5265 C.3      14        0    0.0000
     86 C          19.9847  173.1612   85.1411 C.3      14        0    0.0000
     87 H          21.2836  172.2625   86.6280 H        14        0    0.0000
     88 H          19.6378  171.6386   86.6467 H        14        0    0.0000
     89 H          18.9524  173.5253   85.0679 H        14        0    0.0000
     90 H          20.6368  174.0304   84.9902 H        14        0    0.0000
     91 C          20.2402  172.1314   83.9870 C.3      15        0    0.0000
     92 C          19.9704  172.7316   82.6028 C.3      15        0    0.0000
     93 H          21.2779  171.7809   84.0492 H        15        0    0.0000
     94 H          19.6012  171.2543   84.1478 H        15        0    0.0000
     95 H          18.8905  172.7692   82.4131 H        15        0    0.0000
     96 H          20.3332  173.7661   82.5641 H        15        0    0.0000
     97 C          20.6566  171.9122   81.4560 C.3      16        0    0.0000
     98 C          20.4392  172.5473   80.0781 C.3      16        0    0.0000
     99 H          21.7299  171.8354   81.6697 H        16        0    0.0000
    100 H          20.2595  170.8895   81.4657 H        16        0    0.0000
    101 H          21.0307  172.0166   79.3218 H        16        0    0.0000
    102 H          19.3876  172.4502   79.7808 H        16        0    0.0000
    103 C          20.8330  174.0645   80.0545 C.3      17        0    0.0000
    104 C          20.7265  174.6703   78.6507 C.3      17        0    0.0000
    105 H          20.1825  174.6095   80.7497 H        17        0    0.0000
    106 H          21.8572  174.1699   80.4330 H        17        0    0.0000
    107 H          19.6756  174.7147   78.3388 H        17        0    0.0000
    108 H          21.0969  175.7030   78.6576 H        17        0    0.0000
    109 C          21.5350  173.8506   77.5869 C.3      18        0    0.0000
    110 C          21.2732  174.3368   76.1572 C.3      18        0    0.0000
    111 H          22.6043  173.9264   77.8201 H        18        0    0.0000
    112 H          21.2669  172.7907   77.6788 H        18        0    0.0000
    113 H          21.4914  173.5348   75.4412 H        18        0    0.0000
    114 H          20.2127  174.5892   76.0340 H        18        0    0.0000
    115 C          22.1374  175.5919   75.7889 C.3      19        0    0.0000
    116 C          21.9527  176.0158   74.3276 C.3      19        0    0.0000
    117 H          21.8644  176.4177   76.4575 H        19        0    0.0000
    118 H          23.1926  175.3642   75.9840 H        19        0    0.0000
    119 H          21.8320  175.1302   73.6915 H        19        0    0.0000
    120 H          21.0353  176.6078   74.2208 H        19        0    0.0000
    121 C          23.1628  176.8586   73.7961 C.3      20        0    0.0000
    122 C          22.9260  177.3831   72.3755 C.3      20        0    0.0000
    123 H          23.3385  177.6966   74.4820 H        20        0    0.0000
    124 H          24.0657  176.2360   73.8215 H        20        0    0.0000
    125 H          23.2433  176.6334   71.6400 H        20        0    0.0000
    126 H          21.8547  177.5523   72.2108 H        20        0    0.0000
    127 C          23.6971  178.7197   72.0994 C.3      21        0    0.0000
    128 C          23.4896  179.2248   70.6674 C.3      21        0    0.0000
    129 H          23.3602  179.4772   72.8180 H        21        0    0.0000
    130 H          24.7652  178.5576   72.2902 H        21        0    0.0000
    131 H          23.8297  178.4688   69.9489 H        21        0    0.0000
    132 H          22.4212  179.3836   70.4756 H        21        0    0.0000
    133 C          24.2568  180.5640   70.3927 C.3      22        0    0.0000
    134 C          23.8174  181.2271   69.0826 C.3      22        0    0.0000
    135 H          24.0887  181.2469   71.2348 H        22        0    0.0000
    136 H          25.3336  180.3557   70.3662 H        22        0    0.0000
    137 H          24.0593  180.5771   68.2326 H        22        0    0.0000
    138 H          22.7287  181.3622   69.0761 H        22        0    0.0000
    139 C          24.5008  182.6208   68.8637 C.3      23        0    0.0000
    140 C          23.5015  183.6942   68.4183 C.3      23        0    0.0000
    141 H          24.9892  182.9257   69.7975 H        23        0    0.0000
    142 H          25.2945  182.5116   68.1142 H        23        0    0.0000
    143 H          23.4857  183.7623   67.3235 H        23        0    0.0000
    144 H          22.4873  183.4169   68.7314 H        23        0    0.0000
    145 C          23.8441  185.1059   69.0076 C.3      24        0    0.0000
    146 C          24.7553  185.9170   68.0797 C.3      24        0    0.0000
    147 H          22.9089  185.6507   69.1868 H        24        0    0.0000
    148 H          24.3243  184.9740   69.9851 H        24        0    0.0000
    149 H          24.6979  185.5229   67.0575 H        24        0    0.0000
    150 H          24.4150  186.9590   68.0352 H        24        0    0.0000
    151 C          26.2514  185.8936   68.5470 C.3      25        0    0.0000
    152 C          26.8062  187.3015   68.7899 C.3      25        0    0.0000
    153 H          26.3260  185.2964   69.4643 H        25        0    0.0000
    154 H          26.8514  185.3789   67.7864 H        25        0    0.0000
    155 H          27.3580  187.6460   67.9065 H        25        0    0.0000
    156 H          25.9821  188.0094   68.9425 H        25        0    0.0000
    157 C          27.7582  187.3584   70.0341 C.3      26        0    0.0000
    158 C          27.5051  188.5954   70.9030 C.3      26        0    0.0000
    159 H          27.6187  186.4467   70.6281 H        26        0    0.0000
    160 H          28.7980  187.3507   69.6845 H        26        0    0.0000
    161 H          28.0265  189.4640   70.4819 H        26        0    0.0000
    162 H          26.4358  188.8408   70.9058 H        26        0    0.0000
    163 C          27.9802  188.3894   72.3826 C.3      27        0    0.0000
    164 C          28.0854  189.7129   73.1485 C.3      27        0    0.0000
    165 H          27.2773  187.7165   72.8893 H        27        0    0.0000
    166 H          28.9524  187.8813   72.3744 H        27        0    0.0000
    167 H          28.7314  190.4124   72.6037 H        27        0    0.0000
    168 H          27.0981  190.1859   73.2195 H        27        0    0.0000
    169 C          28.6577  189.5184   74.5949 C.3      28        0    0.0000
    170 C          28.5762  190.8015   75.4292 C.3      28        0    0.0000
    171 H          28.1020  188.7122   75.0896 H        28        0    0.0000
    172 H          29.6997  189.1834   74.5208 H        28        0    0.0000
    173 H          29.1723  191.5939   74.9597 H        28        0    0.0000
    174 H          27.5412  191.1636   75.4623 H        28        0    0.0000
    175 C          29.0845  190.5892   76.8968 C.3      29        0    0.0000
    176 C          28.9100  191.8441   77.7592 C.3      29        0    0.0000
    177 H          28.5386  189.7481   77.3419 H        29        0    0.0000
    178 H          30.1417  190.2977   76.8662 H        29        0    0.0000
    179 H          29.4829  192.6766   77.3321 H        29        0    0.0000
    180 H          27.8579  192.1548   77.7628 H        29        0    0.0000
    181 C          29.3750  191.6175   79.2390 C.3      30        0    0.0000
    182 C          28.6471  192.5387   80.2242 C.3      30        0    0.0000
    183 H          29.2018  190.5679   79.5073 H        30        0    0.0000
    184 H          30.4578  191.7833   79.2988 H        30        0    0.0000
    185 H          28.9402  193.5816   80.0508 H        30        0    0.0000
    186 H          27.5638  192.4845   80.0597 H        30        0    0.0000
    187 C          28.9505  192.1702   81.7173 C.3      31        0    0.0000
    188 C          27.6876  192.1776   82.5856 C.3      31        0    0.0000
    189 H          29.4225  191.1803   81.7483 H        31        0    0.0000
    190 H          29.6847  192.8818   82.1150 H        31        0    0.0000
    191 H          27.3606  193.2093   82.7651 H        31        0    0.0000
    192 H          26.8668  191.6739   82.0602 H        31        0    0.0000
    193 C          27.9122  191.4713   83.9670 C.3      32        0    0.0000
    194 C          27.6717  192.4170   85.1489 C.3      32        0    0.0000
    195 H          27.2410  190.6061   84.0350 H        32        0    0.0000
    196 H          28.9361  191.0791   84.0013 H        32        0    0.0000
    197 H          27.9115  193.4480   84.8605 H        32        0    0.0000
    198 H          26.6111  192.4068   85.4291 H        32        0    0.0000
    199 C          28.5295  192.0307   86.4029 C.3      33        0    0.0000
    200 C          27.7128  192.0687   87.6993 C.3      33        0    0.0000
    201 H          28.9468  191.0277   86.2505 H        33        0    0.0000
    202 H          29.3810  192.7187   86.4744 H        33        0    0.0000
    203 H          27.4750  193.1065   87.9638 H        33        0    0.0000
    204 H          26.7553  191.5529   87.5559 H        33        0    0.0000
    205 C          28.4710  191.4026   88.8988 C.3      34        0    0.0000
    206 C          27.9802  191.9199   90.2555 C.3      34        0    0.0000
    207 H          28.3386  190.3151   88.8407 H        34        0    0.0000
    208 H          29.5453  191.5954   88.7890 H        34        0    0.0000
    209 H          28.0173  193.0162   90.2758 H        34        0    0.0000
    210 H          26.9313  191.6374   90.4087 H        34        0    0.0000
    211 C          28.8328  191.3633   91.4474 C.3      35        0    0.0000
    212 C          28.2577  191.7647   92.8102 C.3      35        0    0.0000
    213 H          28.8818  190.2703   91.3669 H        35        0    0.0000
    214 H          29.8611  191.7328   91.3494 H        35        0    0.0000
    215 H          28.2383  192.8576   92.9031 H        35        0    0.0000
    216 H          27.2187  191.4228   92.8954 H        35        0    0.0000
    217 C          29.0845  191.1707   94.0022 C.3      36        0    0.0000
    218 C          28.5170  191.5826   95.3650 C.3      36        0    0.0000
    219 H          29.0960  190.0772   93.9144 H        36        0    0.0000
    220 H          30.1255  191.5049   93.9117 H        36        0    0.0000
    221 H          28.5084  192.6760   95.4540 H        36        0    0.0000
    222 H          27.4750  191.2512   95.4543 H        36        0    0.0000
    223 C          29.3413  190.9851   96.5571 C.3      37        0    0.0000
    224 C          28.7806  191.4065   97.9198 C.3      37        0    0.0000
    225 H          29.3426  189.8913   96.4728 H        37        0    0.0000
    226 H          30.3850  191.3096   96.4630 H        37        0    0.0000
    227 H          28.7788  192.5004   98.0039 H        37        0    0.0000
    228 H          27.7370  191.0816   98.0140 H        37        0    0.0000
    229 C          29.6052  190.8094   99.1119 C.3      38        0    0.0000
    230 C          29.0396  191.2240  100.4747 C.3      38        0    0.0000
    231 H          29.6121  189.7159   99.0244 H        38        0    0.0000
    232 H          30.6475  191.1394   99.0211 H        38        0    0.0000
    233 H          29.0346  192.3175  100.5630 H        38        0    0.0000
    234 H          27.9966  190.8960  100.5646 H        38        0    0.0000
    235 C          29.8624  190.6245  101.6667 C.3      39        0    0.0000
    236 C          29.2952  191.0370  103.0295 C.3      39        0    0.0000
    237 H          29.8689  189.5311  101.5773 H        39        0    0.0000
    238 H          30.9050  190.9541  101.5778 H        39        0    0.0000
    239 H          29.2915  192.1304  103.1201 H        39        0    0.0000
    240 H          28.2517  190.7101  103.1173 H        39        0    0.0000
    241 C          30.1156  190.4342  104.2216 C.3      40        0    0.0000
    242 C          29.5509  190.8500  105.5844 C.3      40        0    0.0000
    243 H          30.1169  189.3407  104.1327 H        40        0    0.0000
    244 H          31.1598  190.7587  104.1321 H        40        0    0.0000
    245 H          29.5471  191.9435  105.6722 H        40        0    0.0000
    246 H          28.5076  190.5231  105.6749 H        40        0    0.0000
    247 C          30.3736  190.2502  106.7764 C.3      41        0    0.0000
    248 C          29.8059  190.6619  108.1392 C.3      41        0    0.0000
    249 H          30.3804  189.1568  106.6866 H        41        0    0.0000
    250 H          31.4161  190.5801  106.6880 H        41        0    0.0000
    251 H          29.7938  191.7554  108.2269 H        41        0    0.0000
    252 H          28.7651  190.3272  108.2299 H        41        0    0.0000
    253 C          30.6331  190.0686  109.3313 C.3      42        0    0.0000
    254 C          30.0623  190.4760  110.6941 C.3      42        0    0.0000
    255 H          30.6485  188.9753  109.2414 H        42        0    0.0000
    256 H          31.6731  190.4065  109.2428 H        42        0    0.0000
    257 H          30.0488  191.5692  110.7847 H        42        0    0.0000
    258 H          29.0217  190.1397  110.7818 H        42        0    0.0000
    259 C          30.8879  189.8803  111.8861 C.3      43        0    0.0000
    260 C          30.3184  190.2895  113.2489 C.3      43        0    0.0000
    261 H          30.9001  188.7870  111.7964 H        43        0    0.0000
    262 H          31.9289  190.2152  111.7976 H        43        0    0.0000
    263 H          30.2992  191.3829  113.3357 H        43        0    0.0000
    264 H          29.2799  189.9479  113.3405 H        43        0    0.0000
    265 C          31.1503  189.7025  114.4410 C.3      44        0    0.0000
    266 C          30.5790  190.1093  115.8038 C.3      44        0    0.0000
    267 H          31.1712  188.6092  114.3531 H        44        0    0.0000
    268 H          32.1883  190.0459  114.3506 H        44        0    0.0000
    269 H          30.5699  191.2024  115.8967 H        44        0    0.0000
    270 H          29.5369  189.7772  115.8891 H        44        0    0.0000
    271 C          31.4002  189.5076  116.9958 C.3      45        0    0.0000
    272 C          30.8307  189.9168  118.3586 C.3      45        0    0.0000
    273 H          31.4075  188.4144  116.9040 H        45        0    0.0000
    274 H          32.4428  189.8380  116.9093 H        45        0    0.0000
    275 H          31.3208  189.3467  119.1576 H        45        0    0.0000
    276 H          31.0420  190.9758  118.5520 H        45        0    0.0000
    277 C          29.2829  189.6856  118.4493 C.3      46        0    0.0000
    278 C          28.6618  190.3824  119.6649 C.3      46        0    0.0000
    279 H          28.8160  190.0517  117.5265 H        46        0    0.0000
    280 H          29.0885  188.6068  118.4942 H        46        0    0.0000
    281 H          28.1539  191.3031  119.3519 H        46        0    0.0000
    282 H          27.8970  189.7390  120.1173 H        46        0    0.0000
    283 C          29.7302  190.7404  120.7547 C.3      47        0    0.0000
    284 C          29.1171  191.4816  121.9479 C.3      47        0    0.0000
    285 H          30.2127  189.8154  121.0941 H        47        0    0.0000
    286 H          30.5142  191.3536  120.2934 H        47        0    0.0000
    287 H          28.4166  190.8252  122.4789 H        47        0    0.0000
    288 H          29.9012  191.7523  122.6659 H        47        0    0.0000
    289 C          28.3591  192.7831  121.5130 C.3      48        0    0.0000
    290 C          28.8348  194.0181  122.2861 C.3      48        0    0.0000
    291 H          28.5050  192.9341  120.4362 H        48        0    0.0000
    292 H          27.2833  192.6340  121.6673 H        48        0    0.0000
    293 H          28.6889  193.8670  123.3628 H        48        0    0.0000
    294 H          29.9106  194.1672  122.1318 H        48        0    0.0000
    295 H          28.3077  194.9230  121.9837 H        48        0    0.0000
    296 H          19.2798  174.4287  121.7450 H         0        0    0.0000
@<TRIPOS>BOND
     1     1     2      1
     2     1     3      1
     3     1     4      1
     4     1   296      H
     5     2     5      1
     6     2     6      1
     7     2     7      1
     8     7     8      1
     9     7     9      1
    10     7    10      1
    11     8    11      1
    12     8    12      1
    13     8    13      1
    14    13    14      1
    15    13    15      1
    16    13    16      1
    17    14    17      1
    18    14    18      1
    19    14    19      1
    20    19    20      1
    21    19    21      1
    22    19    22      1
    23    20    23      1
    24    20    24      1
    25    20    25      1
    26    25    26      1
    27    25    27      1
    28    25    28      1
    29    26    29      1
    30    26    30      1
    31    26    31      1
    32    31    32      1
    33    31    33      1
    34    31    34      1
    35    32    35      1
    36    32    36      1
    37    32    37      1
    38    37    38      1
    39    37    39      1
    40    37    40      1
    41    38    41      1
    42    38    42      1
    43    38    43      1
    44    43    44      1
    45    43    45      1
    46    43    46      1
    47    44    47      1
    48    44    48      1
    49    44    49      1
    50    49    50      1
    51    49    51      1
    52    49    52      1
    53    50    53      1
    54    50    54      1
    55    50    55      1
    56    55    56      1
    57    55    57      1
    58    55    58      1
    59    56    59      1
    60    56    60      1
    61    56    61      1
    62    61    62      1
    63    61    63      1
    64    61    64      1
    65    62    65      1
    66    62    66      1
    67    62    67      1
    68    67    68      1
    69    67    69      1
    70    67    70      1
    71    68    71      1
    72    68    72      1
    73    68    73      1
    74    73    74      1
    75    73    75      1
    76    73    76      1
    77    74    77      1
    78    74    78      1
    79    74    79      1
    80    79    80      1
    81    79    81      1
    82    79    82      1
    83    80    83      1
    84    80    84      1
    85    80    85      1
    86    85    86      1
    87    85    87      1
    88    85    88      1
    89    86    89      1
    90    86    90      1
    91    86    91      1
    92    91    92      1
    93    91    93      1
    94    91    94      1
    95    92    95      1
    96    92    96      1
    97    92    97      1
    98    97    98      1
    99    97    99      1
   100    97   100      1
   101    98   101      1
   102    98   102      1
   103    98   103      1
   104   103   104      1
   105   103   105      1
   106   103   106      1
   107   104   107      1
   108   104   108      1
   109   104   109      1
   110   109   110      1
   111   109   111      1
   112   109   112      1
   113   110   113      1
   114   110   114      1
   115   110   115      1
   116   115   116      1
   117   115   117      1
   118   115   118      1
   119   116   119      1
   120   116   120      1
   121   116   121      1
   122   121   122      1
   123   121   123      1
   124   121   124      1
   125   122   125      1
   126   122   126      1
   127   122   127      1
   128   127   128      1
   129   127   129      1
   130   127   130      1
   131   128   131      1
   132   128   132      1
   133   128   133      1
   134   133   134      1
   135   133   135      1
   136   133   136      1
   137   134   137      1
   138   134   138      1
   139   134   139      1
   140   139   140      1
   141   139   141      1
   142   139   142      1
   143   140   143      1
   144   140   144      1
   145   140   145      1
   146   145   146      1
   147   145   147      1
   148   145   148      1
   149   146   149      1
   150   146   150      1
   151   146   151      1
   152   151   152      1
   153   151   153      1
   154   151   154      1
   155   152   155      1
   156   152   156      1
   157   152   157      1
   158   157   158      1
   159   157   159      1
   160   157   160      1
   161   158   161      1
   162   158   162      1
   163   158   163      1
   164   163   164      1
   165   163   165      1
   166   163   166      1
   167   164   167      1
   168   164   168      1
   169   164   169      1
   170   169   170      1
   171   169   171      1
   172   169   172      1
   173   170   173      1
   174   170   174      1
   175   170   175      1
   176   175   176      1
   177   175   177      1
   178   175   178      1
   179   176   179      1
   180   176   180      1
   181   176   181      1
   182   181   182      1
   183   181   183      1
   184   181   184      1
   185   182   185      1
   186   182   186      1
   187   182   187      1
   188   187   188      1
   189   187   189      1
   190   187   190      1
   191   188   191      1
   192   188   192      1
   193   188   193      1
   194   193   194      1
   195   193   195      1
   196   193   196      1
   197   194   197      1
   198   194   198      1
   199   194   199      1
   200   199   200      1
   201   199   201      1
   202   199   202      1
   203   200   203      1
   204   200   204      1
   205   200   205      1
   206   205   206      1
   207   205   207      1
   208   205   208      1
   209   206   209      1
   210   206   210      1
   211   206   211      1
   212   211   212      1
   213   211   213      1
   214   211   214      1
   215   212   215      1
   216   212   216      1
   217   212   217      1
   218   217   218      1
   219   217   219      1
   220   217   220      1
   221   218   221      1
   222   218   222      1
   223   218   223      1
   224   223   224      1
   225   223   225      1
   226   223   226      1
   227   224   227      1
   228   224   228      1
   229   224   229      1
   230   229   230      1
   231   229   231      1
   232   229   232      1
   233   230   233      1
   234   230   234      1
   235   230   235      1
   236   235   236      1
   237   235   237      1
   238   235   238      1
   239   236   239      1
   240   236   240      1
   241   236   241      1
   242   241   242      1
   243   241   243      1
   244   241   244      1
   245   242   245      1
   246   242   246      1
   247   242   247      1
   248   247   248      1
   249   247   249      1
   250   247   250      1
   251   248   251      1
   252   248   252      1
   253   248   253      1
   254   253   254      1
   255   253   255      1
   256   253   256      1
   257   254   257      1
   258   254   258      1
   259   254   259      1
   260   259   260      1
   261   259   261      1
   262   259   262      1
   263   260   263      1
   264   260   264      1
   265   260   265      1
   266   265   266      1
   267   265   267      1
   268   265   268      1
   269   266   269      1
   270   266   270      1
   271   266   271      1
   272   271   272      1
   273   271   273      1
   274   271   274      1
   275   272   275      1
   276   272   276      1
   277   272   277      1
   278   277   278      1
   279   277   279      1
   280   277   280      1
   281   278   281      1
   282   278   282      1
   283   278   283      1
   284   283   284      1
   285   283   285      1
   286   283   286      1
   287   284   287      1
   288   284   288      1
   289   284   289      1
   290   289   290      1
   291   289   291      1
   292   289   292      1
   293   290   293      1
   294   290   294      1
   295   290   295      H
