###
### Created by PolyChef-cpp17 on Thu Feb 27 19:40:28 2025
###

@<TRIPOS>MOLECULE
NO_INFO
308 307 1 0 0
SMALL
USER_CHARGES


@<TRIPOS>ATOM
      1 C          29.2798   87.8287  120.6551 C.3       0        0    0.0000
      2 C          28.4513   86.6775  120.0742 C.3       0        0    0.0000
      3 H          28.8875   88.7902  120.3015 H         0        0    0.0000
      4 H          30.3162   87.7621  120.3014 H         0        0    0.0000
      5 H          28.4067   85.8475  120.7902 H         0        0    0.0000
      6 H          27.4177   87.0050  119.9068 H         0        0    0.0000
      7 C          29.0385   86.1466  118.7211 C.3       1        0    0.0000
      8 C          29.6361   87.2700  117.8667 C.3       1        0    0.0000
      9 H          29.8045   85.3923  118.9398 H         1        0    0.0000
     10 H          28.2421   85.6352  118.1664 H         1        0    0.0000
     11 H          28.9445   88.1207  117.8268 H         1        0    0.0000
     12 H          30.5626   87.6384  118.3244 H         1        0    0.0000
     13 C          29.9467   86.8022  116.4031 C.3       2        0    0.0000
     14 C          29.8855   87.9581  115.3986 C.3       2        0    0.0000
     15 H          30.9410   86.3390  116.3835 H         2        0    0.0000
     16 H          29.2296   86.0210  116.1219 H         2        0    0.0000
     17 H          28.9641   88.5353  115.5449 H         2        0    0.0000
     18 H          30.7204   88.6491  115.5689 H         2        0    0.0000
     19 C          29.9382   87.4582  113.9137 C.3       3        0    0.0000
     20 C          29.8246   88.6098  112.9087 C.3       3        0    0.0000
     21 H          30.8775   86.9135  113.7571 H         3        0    0.0000
     22 H          29.1261   86.7381  113.7540 H         3        0    0.0000
     23 H          28.8900   89.1606  113.0718 H         3        0    0.0000
     24 H          30.6425   89.3248  113.0620 H         3        0    0.0000
     25 C          29.8633   88.1085  111.4239 C.3       4        0    0.0000
     26 C          29.8407   89.2658  110.4194 C.3       4        0    0.0000
     27 H          30.7659   87.5020  111.2788 H         4        0    0.0000
     28 H          29.0069   87.4447  111.2524 H         4        0    0.0000
     29 H          28.9315   89.8644  110.5555 H         4        0    0.0000
     30 H          30.6896   89.9370  110.5996 H         4        0    0.0000
     31 C          29.8986   88.7653  108.9349 C.3       5        0    0.0000
     32 C          28.8212   89.4158  108.0602 C.3       5        0    0.0000
     33 H          30.8943   88.9805  108.5277 H         5        0    0.0000
     34 H          29.7832   87.6743  108.9249 H         5        0    0.0000
     35 H          27.8651   89.4412  108.5975 H         5        0    0.0000
     36 H          29.0896   90.4576  107.8453 H         5        0    0.0000
     37 C          28.6186   88.6562  106.7039 C.3       6        0    0.0000
     38 C          28.9270   89.5408  105.4910 C.3       6        0    0.0000
     39 H          29.2634   87.7687  106.6959 H         6        0    0.0000
     40 H          27.5842   88.2944  106.6524 H         6        0    0.0000
     41 H          28.0209   90.0707  105.1718 H         6        0    0.0000
     42 H          29.6618   90.3087  105.7626 H         6        0    0.0000
     43 C          29.4828   88.7155  104.2797 C.3       7        0    0.0000
     44 C          28.8496   89.1380  102.9494 C.3       7        0    0.0000
     45 H          30.5716   88.8425  104.2351 H         7        0    0.0000
     46 H          29.2973   87.6499  104.4629 H         7        0    0.0000
     47 H          27.7595   89.2014  103.0551 H         7        0    0.0000
     48 H          29.1977   90.1397  102.6685 H         7        0    0.0000
     49 C          29.1875   88.1414  101.7875 C.3       8        0    0.0000
     50 C          28.9922   88.7734  100.4050 C.3       8        0    0.0000
     51 H          30.2244   87.8021  101.9029 H         8        0    0.0000
     52 H          28.5522   87.2526  101.8880 H         8        0    0.0000
     53 H          27.9367   89.0325  100.2555 H         8        0    0.0000
     54 H          29.5593   89.7099  100.3360 H         8        0    0.0000
     55 C          29.4474   87.8205   99.2464 C.3       9        0    0.0000
     56 C          29.1845   88.4227   97.8618 C.3       9        0    0.0000
     57 H          30.5163   87.6043   99.3658 H         9        0    0.0000
     58 H          28.9195   86.8641   99.3471 H         9        0    0.0000
     59 H          28.1182   88.6551   97.7490 H         9        0    0.0000
     60 H          29.7265   89.3704   97.7547 H         9        0    0.0000
     61 C          29.6170   87.4595   96.7031 C.3      10        0    0.0000
     62 C          29.3433   88.0569   95.3185 C.3      10        0    0.0000
     63 H          30.6851   87.2338   96.8110 H        10        0    0.0000
     64 H          29.0813   86.5087   96.8151 H        10        0    0.0000
     65 H          28.2749   88.2812   95.2100 H        10        0    0.0000
     66 H          29.8779   89.0084   95.2069 H        10        0    0.0000
     67 C          29.7776   87.0945   94.1597 C.3      11        0    0.0000
     68 C          29.5049   87.6923   92.7751 C.3      11        0    0.0000
     69 H          30.8458   86.8695   94.2686 H        11        0    0.0000
     70 H          29.2424   86.1433   94.2708 H        11        0    0.0000
     71 H          28.4368   87.9182   92.6666 H        11        0    0.0000
     72 H          30.0409   88.6431   92.6637 H        11        0    0.0000
     73 C          29.9379   86.7293   91.6164 C.3      12        0    0.0000
     74 C          29.6656   87.3274   90.2318 C.3      12        0    0.0000
     75 H          31.0058   86.5032   91.7251 H        12        0    0.0000
     76 H          29.4016   85.7788   91.7276 H        12        0    0.0000
     77 H          28.5963   87.5456   90.1199 H        12        0    0.0000
     78 H          30.1949   88.2822   90.1237 H        12        0    0.0000
     79 C          30.1097   86.3695   89.0731 C.3      13        0    0.0000
     80 C          29.8313   86.9647   87.6884 C.3      13        0    0.0000
     81 H          31.1800   86.1551   89.1821 H        13        0    0.0000
     82 H          29.5840   85.4130   89.1839 H        13        0    0.0000
     83 H          28.7612   87.1807   87.5800 H        13        0    0.0000
     84 H          30.3584   87.9203   87.5769 H        13        0    0.0000
     85 C          30.2731   86.0057   86.5297 C.3      14        0    0.0000
     86 C          29.9995   86.6031   85.1451 C.3      14        0    0.0000
     87 H          31.3423   85.7866   86.6403 H        14        0    0.0000
     88 H          29.7430   85.0514   86.6390 H        14        0    0.0000
     89 H          28.9283   86.8100   85.0296 H        14        0    0.0000
     90 H          30.5189   87.5638   85.0406 H        14        0    0.0000
     91 C          30.4582   85.6521   83.9864 C.3      15        0    0.0000
     92 C          30.1874   86.2508   82.6018 C.3      15        0    0.0000
     93 H          31.5289   85.4434   84.1032 H        15        0    0.0000
     94 H          29.9371   84.6922   84.0896 H        15        0    0.0000
     95 H          29.1233   86.4973   82.5001 H        15        0    0.0000
     96 H          30.7411   87.1905   82.4835 H        15        0    0.0000
     97 C          30.5933   85.2759   81.4432 C.3      16        0    0.0000
     98 C          30.3142   85.8712   80.0587 C.3      16        0    0.0000
     99 H          31.6590   85.0347   81.5411 H        16        0    0.0000
    100 H          30.0445   84.3339   81.5652 H        16        0    0.0000
    101 H          31.0285   86.6758   79.8443 H        16        0    0.0000
    102 H          30.4587   85.1072   79.2847 H        16        0    0.0000
    103 C          28.8592   86.4421   79.9397 C.3      17        0    0.0000
    104 C          28.6397   87.2044   78.6283 C.3      17        0    0.0000
    105 H          28.1462   85.6119   80.0161 H        17        0    0.0000
    106 H          28.6672   87.1019   80.7950 H        17        0    0.0000
    107 H          27.6913   86.8984   78.1695 H        17        0    0.0000
    108 H          28.5607   88.2804   78.8273 H        17        0    0.0000
    109 C          29.7988   86.9644   77.6005 C.3      18        0    0.0000
    110 C          29.5552   87.6871   76.2710 C.3      18        0    0.0000
    111 H          30.7422   87.3040   78.0458 H        18        0    0.0000
    112 H          29.9017   85.8858   77.4290 H        18        0    0.0000
    113 H          29.6477   88.7714   76.4098 H        18        0    0.0000
    114 H          30.3194   87.3968   75.5395 H        18        0    0.0000
    115 C          28.1398   87.3729   75.6748 C.3      19        0    0.0000
    116 C          27.8583   88.1695   74.3960 C.3      19        0    0.0000
    117 H          28.0731   86.2972   75.4702 H        19        0    0.0000
    118 H          27.3791   87.5971   76.4328 H        19        0    0.0000
    119 H          27.5349   87.4932   73.5951 H        19        0    0.0000
    120 H          27.0346   88.8740   74.5654 H        19        0    0.0000
    121 C          29.1143   88.9692   73.9057 C.3      20        0    0.0000
    122 C          28.7930   89.8853   72.7197 C.3      20        0    0.0000
    123 H          29.5058   89.5607   74.7426 H        20        0    0.0000
    124 H          29.9010   88.2567   73.6283 H        20        0    0.0000
    125 H          28.8408   90.9359   73.0321 H        20        0    0.0000
    126 H          29.5443   89.7568   71.9307 H        20        0    0.0000
    127 C          27.3739   89.6015   72.1172 C.3      21        0    0.0000
    128 C          26.9617   90.6533   71.0814 C.3      21        0    0.0000
    129 H          27.3768   88.6043   71.6601 H        21        0    0.0000
    130 H          26.6424   89.5714   72.9343 H        21        0    0.0000
    131 H          27.6672   90.6505   70.2413 H        21        0    0.0000
    132 H          25.9766   90.4066   70.6663 H        21        0    0.0000
    133 C          26.9064   92.0969   71.6900 C.3      22        0    0.0000
    134 C          26.2973   93.1139   70.7186 C.3      22        0    0.0000
    135 H          26.3225   92.0671   72.6184 H        22        0    0.0000
    136 H          27.9228   92.4031   71.9668 H        22        0    0.0000
    137 H          27.0801   93.5359   70.0761 H        22        0    0.0000
    138 H          25.5791   92.6167   70.0549 H        22        0    0.0000
    139 C          25.5695   94.2853   71.4640 C.3      23        0    0.0000
    140 C          24.9741   95.3106   70.4928 C.3      23        0    0.0000
    141 H          24.7791   93.8642   72.0976 H        23        0    0.0000
    142 H          26.2848   94.7751   72.1362 H        23        0    0.0000
    143 H          25.7593   95.7093   69.8386 H        23        0    0.0000
    144 H          24.2363   94.8269   69.8407 H        23        0    0.0000
    145 C          24.2836   96.5041   71.2386 C.3      24        0    0.0000
    146 C          23.6886   97.5298   70.2674 C.3      24        0    0.0000
    147 H          23.4980   96.1055   71.8925 H        24        0    0.0000
    148 H          25.0212   96.9877   71.8910 H        24        0    0.0000
    149 H          24.4737   97.9264   69.6117 H        24        0    0.0000
    150 H          22.9490   97.0468   69.6168 H        24        0    0.0000
    151 C          23.0015   98.7252   71.0132 C.3      25        0    0.0000
    152 C          22.3943   99.7437   70.0422 C.3      25        0    0.0000
    153 H          22.2234   98.3277   71.6766 H        25        0    0.0000
    154 H          23.7437   99.2145   71.6560 H        25        0    0.0000
    155 H          23.1731  100.1442   69.3815 H        25        0    0.0000
    156 H          21.6551   99.2535   69.3965 H        25        0    0.0000
    157 C          21.7020  100.9361   70.7880 C.3      26        0    0.0000
    158 C          22.1355  102.2978   70.2342 C.3      26        0    0.0000
    159 H          20.6141  100.8237   70.7011 H        26        0    0.0000
    160 H          21.9410  100.8713   71.8567 H        26        0    0.0000
    161 H          23.0876  102.2000   69.6979 H        26        0    0.0000
    162 H          21.3993  102.6593   69.5056 H        26        0    0.0000
    163 C          22.2995  103.3734   71.3628 C.3      27        0    0.0000
    164 C          20.9993  104.1404   71.6276 C.3      27        0    0.0000
    165 H          22.6356  102.8746   72.2804 H        27        0    0.0000
    166 H          23.0955  104.0708   71.0737 H        27        0    0.0000
    167 H          21.2122  105.2089   71.7553 H        27        0    0.0000
    168 H          20.3288  104.0538   70.7636 H        27        0    0.0000
    169 C          20.2507  103.6185   72.9023 C.3      28        0    0.0000
    170 C          19.8821  104.7530   73.8647 C.3      28        0    0.0000
    171 H          19.3461  103.0838   72.5871 H        28        0    0.0000
    172 H          20.8886  102.8855   73.4117 H        28        0    0.0000
    173 H          20.5090  105.6316   73.6682 H        28        0    0.0000
    174 H          18.8431  105.0640   73.6992 H        28        0    0.0000
    175 C          20.0518  104.3368   75.3665 C.3      29        0    0.0000
    176 C          19.4905  105.3901   76.3281 C.3      29        0    0.0000
    177 H          19.5482  103.3754   75.5261 H        29        0    0.0000
    178 H          21.1173  104.1719   75.5695 H        29        0    0.0000
    179 H          20.0201  106.3415   76.1945 H        29        0    0.0000
    180 H          18.4347  105.5825   76.1005 H        29        0    0.0000
    181 C          19.6122  104.9502   77.8278 C.3      30        0    0.0000
    182 C          19.1436  106.0440   78.7937 C.3      30        0    0.0000
    183 H          19.0218  104.0378   77.9777 H        30        0    0.0000
    184 H          20.6568  104.6872   78.0355 H        30        0    0.0000
    185 H          19.7204  106.9627   78.6301 H        30        0    0.0000
    186 H          18.0930  106.2928   78.5992 H        30        0    0.0000
    187 C          19.2918  105.6149   80.2942 C.3      31        0    0.0000
    188 C          19.2357  106.8124   81.2491 C.3      31        0    0.0000
    189 H          18.4950  104.9014   80.5383 H        31        0    0.0000
    190 H          20.2419  105.0802   80.4169 H        31        0    0.0000
    191 H          19.9798  107.5630   80.9552 H        31        0    0.0000
    192 H          18.2547  107.2992   81.1847 H        31        0    0.0000
    193 C          19.4971  106.3977   82.7381 C.3      32        0    0.0000
    194 C          18.4096  106.9168   83.6852 C.3      32        0    0.0000
    195 H          19.5551  105.3037   82.7955 H        32        0    0.0000
    196 H          20.4779  106.7817   83.0451 H        32        0    0.0000
    197 H          18.6311  107.9493   83.9823 H        32        0    0.0000
    198 H          17.4412  106.9380   83.1702 H        32        0    0.0000
    199 C          18.2765  106.0371   84.9758 C.3      33        0    0.0000
    200 C          18.8799  106.7193   86.2085 C.3      33        0    0.0000
    201 H          17.2149  105.8201   85.1479 H        33        0    0.0000
    202 H          18.7705  105.0735   84.7996 H        33        0    0.0000
    203 H          19.6697  107.4169   85.9035 H        33        0    0.0000
    204 H          18.1144  107.3147   86.7214 H        33        0    0.0000
    205 C          19.4817  105.6874   87.2237 C.3      34        0    0.0000
    206 C          19.3378  106.1512   88.6774 C.3      34        0    0.0000
    207 H          18.9798  104.7217   87.0856 H        34        0    0.0000
    208 H          20.5401  105.5298   86.9821 H        34        0    0.0000
    209 H          20.0010  107.0043   88.8674 H        34        0    0.0000
    210 H          18.3143  106.5008   88.8612 H        34        0    0.0000
    211 C          19.6742  105.0121   89.7005 C.3      35        0    0.0000
    212 C          19.5394  105.4787   91.1542 C.3      35        0    0.0000
    213 H          19.0065  104.1617   89.5149 H        35        0    0.0000
    214 H          20.6953  104.6579   89.5123 H        35        0    0.0000
    215 H          20.2060  106.3300   91.3394 H        35        0    0.0000
    216 H          18.5179  105.8316   91.3428 H        35        0    0.0000
    217 C          19.8776  104.3401   92.1773 C.3      36        0    0.0000
    218 C          19.7354  104.8045   93.6310 C.3      36        0    0.0000
    219 H          19.2147  103.4867   91.9885 H        36        0    0.0000
    220 H          20.9010  103.9910   91.9923 H        36        0    0.0000
    221 H          20.3974  105.6588   93.8194 H        36        0    0.0000
    222 H          18.7116  105.1523   93.8164 H        36        0    0.0000
    223 C          20.0755  103.6665   94.6542 C.3      37        0    0.0000
    224 C          19.9357  104.1315   96.1078 C.3      37        0    0.0000
    225 H          19.4125  102.8128   94.4668 H        37        0    0.0000
    226 H          21.0987  103.3175   94.4676 H        37        0    0.0000
    227 H          20.5944  104.9889   96.2935 H        37        0    0.0000
    228 H          18.9109  104.4750   96.2960 H        37        0    0.0000
    229 C          20.2838  102.9960   97.1310 C.3      38        0    0.0000
    230 C          20.1419  103.4603   98.5847 C.3      38        0    0.0000
    231 H          19.6262  102.1380   96.9443 H        38        0    0.0000
    232 H          21.3092  102.6536   96.9438 H        38        0    0.0000
    233 H          20.8071  104.3119   98.7741 H        38        0    0.0000
    234 H          19.1193  103.8122   98.7690 H        38        0    0.0000
    235 C          20.4763  102.3206   99.6077 C.3      39        0    0.0000
    236 C          20.3363  102.7856  101.0615 C.3      39        0    0.0000
    237 H          19.8102  101.4696   99.4192 H        39        0    0.0000
    238 H          21.4984  101.9678   99.4225 H        39        0    0.0000
    239 H          19.2766  102.9126  101.3153 H        39        0    0.0000
    240 H          20.7335  102.0212  101.7408 H        39        0    0.0000
    241 C          21.0852  104.1367  101.3278 C.3      40        0    0.0000
    242 C          20.8208  104.6795  102.7366 C.3      40        0    0.0000
    243 H          22.1610  103.9797  101.1810 H        40        0    0.0000
    244 H          20.7685  104.8706  100.5764 H        40        0    0.0000
    245 H          21.7665  104.9669  103.2126 H        40        0    0.0000
    246 H          20.2074  105.5873  102.6810 H        40        0    0.0000
    247 C          20.0932  103.6332  103.6495 C.3      41        0    0.0000
    248 C          20.0794  104.0574  105.1222 C.3      41        0    0.0000
    249 H          19.0664  103.5007  103.2865 H        41        0    0.0000
    250 H          20.5929  102.6624  103.5423 H        41        0    0.0000
    251 H          21.0020  104.5985  105.3664 H        41        0    0.0000
    252 H          19.2494  104.7509  105.3061 H        41        0    0.0000
    253 C          19.9396  102.8336  106.0917 C.3      42        0    0.0000
    254 C          19.9398  103.2566  107.5649 C.3      42        0    0.0000
    255 H          19.0119  102.2984  105.8542 H        42        0    0.0000
    256 H          20.7639  102.1352  105.9008 H        42        0    0.0000
    257 H          18.9993  103.7652  107.8103 H        42        0    0.0000
    258 H          19.9971  102.3714  108.2104 H        42        0    0.0000
    259 C          21.1350  104.2109  107.9088 C.3      43        0    0.0000
    260 C          21.1537  104.6082  109.3889 C.3      43        0    0.0000
    261 H          22.0745  103.7115  107.6414 H        43        0    0.0000
    262 H          21.0644  105.1069  107.2797 H        43        0    0.0000
    263 H          22.0768  105.1541  109.6203 H        43        0    0.0000
    264 H          20.3219  105.2896  109.6061 H        43        0    0.0000
    265 C          21.0501  103.3655  110.3389 C.3      44        0    0.0000
    266 C          20.6308  103.7547  111.7608 C.3      44        0    0.0000
    267 H          20.3289  102.6556  109.9152 H        44        0    0.0000
    268 H          22.0205  102.8542  110.3595 H        44        0    0.0000
    269 H          21.4635  104.2489  112.2765 H        44        0    0.0000
    270 H          19.8078  104.4792  111.7253 H        44        0    0.0000
    271 C          20.1769  102.5153  112.6066 C.3      45        0    0.0000
    272 C          19.8844  102.8833  114.0654 C.3      45        0    0.0000
    273 H          19.2839  102.0785  112.1426 H        45        0    0.0000
    274 H          20.9616  101.7500  112.5618 H        45        0    0.0000
    275 H          18.9985  103.5280  114.1204 H        45        0    0.0000
    276 H          19.6525  101.9793  114.6421 H        45        0    0.0000
    277 C          21.0892  103.6210  114.7451 C.3      46        0    0.0000
    278 C          20.7795  104.0305  116.1892 C.3      46        0    0.0000
    279 H          21.9663  102.9624  114.7207 H        46        0    0.0000
    280 H          21.3433  104.5063  114.1492 H        46        0    0.0000
    281 H          21.6988  104.3520  116.6943 H        46        0    0.0000
    282 H          20.0978  104.8900  116.1985 H        46        0    0.0000
    283 C          20.1326  102.8635  117.0120 C.3      47        0    0.0000
    284 C          19.8041  103.2793  118.4501 C.3      47        0    0.0000
    285 H          19.2214  102.5318  116.4988 H        47        0    0.0000
    286 H          20.8210  102.0092  117.0153 H        47        0    0.0000
    287 H          18.9359  103.9499  118.4588 H        47        0    0.0000
    288 H          19.5276  102.3983  119.0425 H        47        0    0.0000
    289 C          21.0072  104.0011  119.1494 C.3      48        0    0.0000
    290 C          20.6212  104.5849  120.5129 C.3      48        0    0.0000
    291 H          21.8298  103.2848  119.2661 H        48        0    0.0000
    292 H          21.3739  104.7971  118.4895 H        48        0    0.0000
    293 H          21.3855  104.3348  121.2591 H        48        0    0.0000
    294 H          20.5828  105.6798  120.4560 H        48        0    0.0000
    295 C          19.2333  104.0560  121.0143 C.3      49        0    0.0000
    296 C          18.7839  104.7414  122.3094 C.3      49        0    0.0000
    297 H          18.4879  104.2164  120.2256 H        49        0    0.0000
    298 H          19.3022  102.9718  121.1668 H        49        0    0.0000
    299 H          17.7759  104.4054  122.5826 H        49        0    0.0000
    300 H          19.4462  104.4552  123.1358 H        49        0    0.0000
    301 C          18.7790  106.3040  122.1838 C.3      50        0    0.0000
    302 C          17.4195  106.9116  122.5465 C.3      50        0    0.0000
    303 H          19.5602  106.7136  122.8361 H        50        0    0.0000
    304 H          19.0511  106.5770  121.1567 H        50        0    0.0000
    305 H          16.6383  106.5019  121.8942 H        50        0    0.0000
    306 H          17.1474  106.6385  123.5736 H        50        0    0.0000
    307 H          17.4160  107.9981  122.4592 H        50        0    0.0000
    308 H          29.2798   87.8287  121.7450 H         0        0    0.0000
@<TRIPOS>BOND
     1     1     2      1
     2     1     3      1
     3     1     4      1
     4     1   308      H
     5     2     5      1
     6     2     6      1
     7     2     7      1
     8     7     8      1
     9     7     9      1
    10     7    10      1
    11     8    11      1
    12     8    12      1
    13     8    13      1
    14    13    14      1
    15    13    15      1
    16    13    16      1
    17    14    17      1
    18    14    18      1
    19    14    19      1
    20    19    20      1
    21    19    21      1
    22    19    22      1
    23    20    23      1
    24    20    24      1
    25    20    25      1
    26    25    26      1
    27    25    27      1
    28    25    28      1
    29    26    29      1
    30    26    30      1
    31    26    31      1
    32    31    32      1
    33    31    33      1
    34    31    34      1
    35    32    35      1
    36    32    36      1
    37    32    37      1
    38    37    38      1
    39    37    39      1
    40    37    40      1
    41    38    41      1
    42    38    42      1
    43    38    43      1
    44    43    44      1
    45    43    45      1
    46    43    46      1
    47    44    47      1
    48    44    48      1
    49    44    49      1
    50    49    50      1
    51    49    51      1
    52    49    52      1
    53    50    53      1
    54    50    54      1
    55    50    55      1
    56    55    56      1
    57    55    57      1
    58    55    58      1
    59    56    59      1
    60    56    60      1
    61    56    61      1
    62    61    62      1
    63    61    63      1
    64    61    64      1
    65    62    65      1
    66    62    66      1
    67    62    67      1
    68    67    68      1
    69    67    69      1
    70    67    70      1
    71    68    71      1
    72    68    72      1
    73    68    73      1
    74    73    74      1
    75    73    75      1
    76    73    76      1
    77    74    77      1
    78    74    78      1
    79    74    79      1
    80    79    80      1
    81    79    81      1
    82    79    82      1
    83    80    83      1
    84    80    84      1
    85    80    85      1
    86    85    86      1
    87    85    87      1
    88    85    88      1
    89    86    89      1
    90    86    90      1
    91    86    91      1
    92    91    92      1
    93    91    93      1
    94    91    94      1
    95    92    95      1
    96    92    96      1
    97    92    97      1
    98    97    98      1
    99    97    99      1
   100    97   100      1
   101    98   101      1
   102    98   102      1
   103    98   103      1
   104   103   104      1
   105   103   105      1
   106   103   106      1
   107   104   107      1
   108   104   108      1
   109   104   109      1
   110   109   110      1
   111   109   111      1
   112   109   112      1
   113   110   113      1
   114   110   114      1
   115   110   115      1
   116   115   116      1
   117   115   117      1
   118   115   118      1
   119   116   119      1
   120   116   120      1
   121   116   121      1
   122   121   122      1
   123   121   123      1
   124   121   124      1
   125   122   125      1
   126   122   126      1
   127   122   127      1
   128   127   128      1
   129   127   129      1
   130   127   130      1
   131   128   131      1
   132   128   132      1
   133   128   133      1
   134   133   134      1
   135   133   135      1
   136   133   136      1
   137   134   137      1
   138   134   138      1
   139   134   139      1
   140   139   140      1
   141   139   141      1
   142   139   142      1
   143   140   143      1
   144   140   144      1
   145   140   145      1
   146   145   146      1
   147   145   147      1
   148   145   148      1
   149   146   149      1
   150   146   150      1
   151   146   151      1
   152   151   152      1
   153   151   153      1
   154   151   154      1
   155   152   155      1
   156   152   156      1
   157   152   157      1
   158   157   158      1
   159   157   159      1
   160   157   160      1
   161   158   161      1
   162   158   162      1
   163   158   163      1
   164   163   164      1
   165   163   165      1
   166   163   166      1
   167   164   167      1
   168   164   168      1
   169   164   169      1
   170   169   170      1
   171   169   171      1
   172   169   172      1
   173   170   173      1
   174   170   174      1
   175   170   175      1
   176   175   176      1
   177   175   177      1
   178   175   178      1
   179   176   179      1
   180   176   180      1
   181   176   181      1
   182   181   182      1
   183   181   183      1
   184   181   184      1
   185   182   185      1
   186   182   186      1
   187   182   187      1
   188   187   188      1
   189   187   189      1
   190   187   190      1
   191   188   191      1
   192   188   192      1
   193   188   193      1
   194   193   194      1
   195   193   195      1
   196   193   196      1
   197   194   197      1
   198   194   198      1
   199   194   199      1
   200   199   200      1
   201   199   201      1
   202   199   202      1
   203   200   203      1
   204   200   204      1
   205   200   205      1
   206   205   206      1
   207   205   207      1
   208   205   208      1
   209   206   209      1
   210   206   210      1
   211   206   211      1
   212   211   212      1
   213   211   213      1
   214   211   214      1
   215   212   215      1
   216   212   216      1
   217   212   217      1
   218   217   218      1
   219   217   219      1
   220   217   220      1
   221   218   221      1
   222   218   222      1
   223   218   223      1
   224   223   224      1
   225   223   225      1
   226   223   226      1
   227   224   227      1
   228   224   228      1
   229   224   229      1
   230   229   230      1
   231   229   231      1
   232   229   232      1
   233   230   233      1
   234   230   234      1
   235   230   235      1
   236   235   236      1
   237   235   237      1
   238   235   238      1
   239   236   239      1
   240   236   240      1
   241   236   241      1
   242   241   242      1
   243   241   243      1
   244   241   244      1
   245   242   245      1
   246   242   246      1
   247   242   247      1
   248   247   248      1
   249   247   249      1
   250   247   250      1
   251   248   251      1
   252   248   252      1
   253   248   253      1
   254   253   254      1
   255   253   255      1
   256   253   256      1
   257   254   257      1
   258   254   258      1
   259   254   259      1
   260   259   260      1
   261   259   261      1
   262   259   262      1
   263   260   263      1
   264   260   264      1
   265   260   265      1
   266   265   266      1
   267   265   267      1
   268   265   268      1
   269   266   269      1
   270   266   270      1
   271   266   271      1
   272   271   272      1
   273   271   273      1
   274   271   274      1
   275   272   275      1
   276   272   276      1
   277   272   277      1
   278   277   278      1
   279   277   279      1
   280   277   280      1
   281   278   281      1
   282   278   282      1
   283   278   283      1
   284   283   284      1
   285   283   285      1
   286   283   286      1
   287   284   287      1
   288   284   288      1
   289   284   289      1
   290   289   290      1
   291   289   291      1
   292   289   292      1
   293   290   293      1
   294   290   294      1
   295   290   295      1
   296   295   296      1
   297   295   297      1
   298   295   298      1
   299   296   299      1
   300   296   300      1
   301   296   301      1
   302   301   302      1
   303   301   303      1
   304   301   304      1
   305   302   305      1
   306   302   306      1
   307   302   307      H
