###
### Created by PolyChef-cpp17 on Thu Feb 27 19:40:28 2025
###

@<TRIPOS>MOLECULE
NO_INFO
290 289 1 0 0
SMALL
USER_CHARGES


@<TRIPOS>ATOM
      1 C          69.2798  191.7487  -39.3449 C.3       0        0    0.0000
      2 C          67.8706  191.5882  -38.7641 C.3       0        0    0.0000
      3 H          69.9271  190.9366  -38.9913 H         0        0    0.0000
      4 H          69.7280  192.6855  -38.9913 H         0        0    0.0000
      5 H          67.3722  192.5641  -38.7110 H         0        0    0.0000
      6 H          67.2610  190.9587  -39.4242 H         0        0    0.0000
      7 C          67.8873  190.9508  -37.3320 C.3       1        0    0.0000
      8 C          69.1650  191.2940  -36.5583 C.3       1        0    0.0000
      9 H          67.0070  191.3010  -36.7788 H         1        0    0.0000
     10 H          67.7866  189.8626  -37.4281 H         1        0    0.0000
     11 H          70.0453  191.1189  -37.1892 H         1        0    0.0000
     12 H          69.1718  192.3595  -36.2970 H         1        0    0.0000
     13 C          69.3089  190.4506  -35.2448 C.3       2        0    0.0000
     14 C          70.2033  191.1388  -34.2077 C.3       2        0    0.0000
     15 H          68.3104  190.2774  -34.8246 H         2        0    0.0000
     16 H          69.7184  189.4655  -35.5002 H         2        0    0.0000
     17 H          71.2585  191.0201  -34.4831 H         2        0    0.0000
     18 H          70.0009  192.2169  -34.1926 H         2        0    0.0000
     19 C          69.9900  190.5645  -32.7647 C.3       3        0    0.0000
     20 C          70.6150  191.4564  -31.6863 C.3       3        0    0.0000
     21 H          68.9136  190.4537  -32.5838 H         3        0    0.0000
     22 H          70.4227  189.5575  -32.7173 H         3        0    0.0000
     23 H          71.7044  191.4902  -31.8112 H         3        0    0.0000
     24 H          70.2534  192.4865  -31.7941 H         3        0    0.0000
     25 C          70.2878  190.9550  -30.2375 C.3       4        0    0.0000
     26 C          70.8991  191.8562  -29.1591 C.3       4        0    0.0000
     27 H          69.1983  190.9097  -30.1167 H         4        0    0.0000
     28 H          70.6601  189.9291  -30.1259 H         4        0    0.0000
     29 H          71.9890  191.8978  -29.2770 H         4        0    0.0000
     30 H          70.5305  192.8831  -29.2737 H         4        0    0.0000
     31 C          70.5662  191.3587  -27.7102 C.3       5        0    0.0000
     32 C          71.1705  192.2646  -26.6318 C.3       5        0    0.0000
     33 H          69.4763  191.3113  -27.5943 H         5        0    0.0000
     34 H          70.9402  190.3340  -27.5936 H         5        0    0.0000
     35 H          72.2607  192.3095  -26.7457 H         5        0    0.0000
     36 H          70.7989  193.2900  -26.7503 H         5        0    0.0000
     37 C          70.8338  191.7696  -25.1830 C.3       6        0    0.0000
     38 C          71.4822  192.6448  -24.1047 C.3       6        0    0.0000
     39 H          69.7441  191.7619  -25.0562 H         6        0    0.0000
     40 H          71.1706  190.7309  -25.0770 H         6        0    0.0000
     41 H          72.5713  192.6584  -24.2360 H         6        0    0.0000
     42 H          71.1397  193.6821  -24.2061 H         6        0    0.0000
     43 C          71.1541  192.1436  -22.6561 C.3       7        0    0.0000
     44 C          71.0715  193.2950  -21.6479 C.3       7        0    0.0000
     45 H          70.2046  191.5945  -22.6785 H         7        0    0.0000
     46 H          71.9252  191.4272  -22.3466 H         7        0    0.0000
     47 H          72.0557  193.7660  -21.5333 H         7        0    0.0000
     48 H          70.3918  194.0720  -22.0190 H         7        0    0.0000
     49 C          70.5729  192.8177  -20.2404 C.3       8        0    0.0000
     50 C          71.5258  193.2343  -19.1146 C.3       8        0    0.0000
     51 H          69.5734  193.2324  -20.0600 H         8        0    0.0000
     52 H          70.4630  191.7263  -20.2556 H         8        0    0.0000
     53 H          72.5652  193.1748  -19.4602 H         8        0    0.0000
     54 H          71.3455  194.2803  -18.8370 H         8        0    0.0000
     55 C          71.3655  192.3380  -17.8385 C.3       9        0    0.0000
     56 C          71.1093  193.1669  -16.5750 C.3       9        0    0.0000
     57 H          70.5389  191.6354  -18.0014 H         9        0    0.0000
     58 H          72.2728  191.7339  -17.7145 H         9        0    0.0000
     59 H          72.0369  193.6545  -16.2505 H         9        0    0.0000
     60 H          70.3909  193.9677  -16.7897 H         9        0    0.0000
     61 C          70.5569  192.2955  -15.3947 C.3      10        0    0.0000
     62 C          70.9968  192.8260  -14.0257 C.3      10        0    0.0000
     63 H          69.4618  192.2721  -15.4549 H        10        0    0.0000
     64 H          70.9018  191.2624  -15.5263 H        10        0    0.0000
     65 H          72.0821  192.9858  -14.0152 H        10        0    0.0000
     66 H          70.5328  193.8013  -13.8335 H        10        0    0.0000
     67 C          70.6187  191.8481  -12.8602 C.3      11        0    0.0000
     68 C          70.8710  192.4646  -11.4799 C.3      11        0    0.0000
     69 H          69.5623  191.5700  -12.9606 H        11        0    0.0000
     70 H          71.1996  190.9242  -12.9714 H        11        0    0.0000
     71 H          71.9350  192.7055  -11.3642 H        11        0    0.0000
     72 H          70.3218  193.4095  -11.3838 H        11        0    0.0000
     73 C          70.4398  191.5089  -10.3145 C.3      12        0    0.0000
     74 C          70.7097  192.1176   -8.9341 C.3      12        0    0.0000
     75 H          69.3724  191.2792  -10.4222 H        12        0    0.0000
     76 H          70.9785  190.5589  -10.4186 H        12        0    0.0000
     77 H          71.7763  192.3515   -8.8281 H        12        0    0.0000
     78 H          70.1673  193.0653   -8.8282 H        12        0    0.0000
     79 C          70.2845  191.1591   -7.7687 C.3      13        0    0.0000
     80 C          70.5459  191.7716   -6.3883 C.3      13        0    0.0000
     81 H          69.2195  190.9198   -7.8785 H        13        0    0.0000
     82 H          70.8319  190.2139   -7.8706 H        13        0    0.0000
     83 H          71.6123  192.0031   -6.2752 H        13        0    0.0000
     84 H          70.0052  192.7210   -6.2895 H        13        0    0.0000
     85 C          70.1095  190.8181   -5.2230 C.3      14        0    0.0000
     86 C          70.3242  191.4506   -3.8436 C.3      14        0    0.0000
     87 H          69.0524  190.5570   -5.3567 H        14        0    0.0000
     88 H          70.6773  189.8825   -5.3003 H        14        0    0.0000
     89 H          71.3848  191.6926   -3.7016 H        14        0    0.0000
     90 H          69.7731  192.3967   -3.7737 H        14        0    0.0000
     91 C          69.8607  190.5087   -2.6794 C.3      15        0    0.0000
     92 C          70.1757  191.0939   -1.2983 C.3      15        0    0.0000
     93 H          68.7823  190.3316   -2.7758 H        15        0    0.0000
     94 H          70.3515  189.5345   -2.7960 H        15        0    0.0000
     95 H          71.1844  191.5252   -1.2937 H        15        0    0.0000
     96 H          69.4820  191.9126   -1.0696 H        15        0    0.0000
     97 C          70.0806  190.0186   -0.1616 C.3      16        0    0.0000
     98 C          70.8408  190.4392    1.1010 C.3      16        0    0.0000
     99 H          69.0233  189.8473    0.0755 H        16        0    0.0000
    100 H          70.4767  189.0681   -0.5400 H        16        0    0.0000
    101 H          71.8003  190.8957    0.8278 H        16        0    0.0000
    102 H          70.2722  191.2032    1.6455 H        16        0    0.0000
    103 C          71.1117  189.2305    2.0617 C.3      17        0    0.0000
    104 C          71.9751  189.6267    3.2645 C.3      17        0    0.0000
    105 H          70.1501  188.8291    2.4049 H        17        0    0.0000
    106 H          71.6024  188.4304    1.4937 H        17        0    0.0000
    107 H          72.9302  190.0431    2.9211 H        17        0    0.0000
    108 H          71.4769  190.4155    3.8416 H        17        0    0.0000
    109 C          72.2650  188.4129    4.2133 C.3      18        0    0.0000
    110 C          71.9813  188.7436    5.6827 C.3      18        0    0.0000
    111 H          71.6523  187.5606    3.8944 H        18        0    0.0000
    112 H          73.3126  188.1110    4.0911 H        18        0    0.0000
    113 H          72.8989  189.0898    6.1743 H        18        0    0.0000
    114 H          71.2581  189.5658    5.7504 H        18        0    0.0000
    115 C          71.4198  187.5106    6.4714 C.3      19        0    0.0000
    116 C          70.2197  187.8806    7.3500 C.3      19        0    0.0000
    117 H          71.1344  186.7318    5.7534 H        19        0    0.0000
    118 H          72.2230  187.0905    7.0893 H        19        0    0.0000
    119 H          70.5529  188.0856    8.3749 H        19        0    0.0000
    120 H          69.7528  188.8020    6.9804 H        19        0    0.0000
    121 C          69.1386  186.7460    7.3875 C.3      20        0    0.0000
    122 C          69.2679  185.8615    8.6324 C.3      20        0    0.0000
    123 H          68.1428  187.2052    7.3541 H        20        0    0.0000
    124 H          69.2347  186.1359    6.4809 H        20        0    0.0000
    125 H          70.2753  185.9541    9.0567 H        20        0    0.0000
    126 H          68.5676  186.1976    9.4071 H        20        0    0.0000
    127 C          68.9883  184.3510    8.3196 C.3      21        0    0.0000
    128 C          69.9980  183.4203    9.0003 C.3      21        0    0.0000
    129 H          67.9703  184.1048    8.6462 H        21        0    0.0000
    130 H          69.0146  184.2042    7.2327 H        21        0    0.0000
    131 H          70.2219  183.7830   10.0111 H        21        0    0.0000
    132 H          69.5682  182.4173    9.1134 H        21        0    0.0000
    133 C          71.3385  183.3077    8.1954 C.3      22        0    0.0000
    134 C          72.4360  182.5933    8.9918 C.3      22        0    0.0000
    135 H          71.1443  182.7715    7.2582 H        22        0    0.0000
    136 H          71.6705  184.3160    7.9185 H        22        0    0.0000
    137 H          72.4446  182.9545   10.0277 H        22        0    0.0000
    138 H          72.2291  181.5168    9.0352 H        22        0    0.0000
    139 C          73.8584  182.8098    8.3693 C.3      23        0    0.0000
    140 C          74.9527  182.0755    9.1517 C.3      23        0    0.0000
    141 H          73.8448  182.4651    7.3279 H        23        0    0.0000
    142 H          74.0726  183.8854    8.3423 H        23        0    0.0000
    143 H          75.9036  182.1273    8.6071 H        23        0    0.0000
    144 H          75.1167  182.5657   10.1193 H        23        0    0.0000
    145 C          74.5953  180.5698    9.4023 C.3      24        0    0.0000
    146 C          75.7175  179.6249    8.9586 C.3      24        0    0.0000
    147 H          74.3851  180.4292   10.4698 H        24        0    0.0000
    148 H          73.6689  180.3321    8.8648 H        24        0    0.0000
    149 H          76.6666  180.1714    8.8959 H        24        0    0.0000
    150 H          75.8588  178.8325    9.7041 H        24        0    0.0000
    151 C          75.4224  178.9636    7.5682 C.3      25        0    0.0000
    152 C          76.2899  177.7251    7.3182 C.3      25        0    0.0000
    153 H          74.3599  178.6940    7.5233 H        25        0    0.0000
    154 H          75.5923  179.7073    6.7798 H        25        0    0.0000
    155 H          77.3520  177.9986    7.3430 H        25        0    0.0000
    156 H          76.1352  176.9898    8.1176 H        25        0    0.0000
    157 C          75.9747  177.0473    5.9403 C.3      26        0    0.0000
    158 C          76.8788  175.8403    5.6664 C.3      26        0    0.0000
    159 H          74.9221  176.7386    5.9306 H        26        0    0.0000
    160 H          76.0916  177.7932    5.1443 H        26        0    0.0000
    161 H          77.8781  176.0165    6.0835 H        26        0    0.0000
    162 H          76.4803  174.9501    6.1686 H        26        0    0.0000
    163 C          77.0170  175.5370    4.1346 C.3      27        0    0.0000
    164 C          77.9942  174.3897    3.8555 C.3      27        0    0.0000
    165 H          76.0261  175.2935    3.7316 H        27        0    0.0000
    166 H          77.3503  176.4480    3.6224 H        27        0    0.0000
    167 H          78.8967  174.5069    4.4681 H        27        0    0.0000
    168 H          77.5416  173.4321    4.1413 H        27        0    0.0000
    169 C          78.4133  174.3201    2.3465 C.3      28        0    0.0000
    170 C          79.4228  173.1993    2.0752 C.3      28        0    0.0000
    171 H          77.5138  174.1720    1.7362 H        28        0    0.0000
    172 H          78.8377  175.2880    2.0524 H        28        0    0.0000
    173 H          80.3181  173.3417    2.6931 H        28        0    0.0000
    174 H          78.9945  172.2302    2.3597 H        28        0    0.0000
    175 C          79.8529  173.1389    0.5689 C.3      29        0    0.0000
    176 C          80.3378  171.7440    0.1588 C.3      29        0    0.0000
    177 H          79.0015  173.4395   -0.0543 H        29        0    0.0000
    178 H          80.6452  173.8781    0.3975 H        29        0    0.0000
    179 H          81.2878  171.5145    0.6571 H        29        0    0.0000
    180 H          79.6181  170.9840    0.4871 H        29        0    0.0000
    181 C          80.5363  171.6159   -1.3910 C.3      30        0    0.0000
    182 C          79.9802  170.2977   -1.9407 C.3      30        0    0.0000
    183 H          80.0451  172.4652   -1.8818 H        30        0    0.0000
    184 H          81.6065  171.6966   -1.6183 H        30        0    0.0000
    185 H          80.7497  169.5171   -1.8961 H        30        0    0.0000
    186 H          79.1452  169.9530   -1.3182 H        30        0    0.0000
    187 C          79.4838  170.4339   -3.4215 C.3      31        0    0.0000
    188 C          80.5568  170.0191   -4.4342 C.3      31        0    0.0000
    189 H          78.5856  169.8176   -3.5514 H        31        0    0.0000
    190 H          79.1810  171.4734   -3.5988 H        31        0    0.0000
    191 H          81.5490  170.0567   -3.9677 H        31        0    0.0000
    192 H          80.3958  168.9804   -4.7487 H        31        0    0.0000
    193 C          80.5608  170.9369   -5.7051 C.3      32        0    0.0000
    194 C          81.9634  171.0961   -6.3021 C.3      32        0    0.0000
    195 H          79.8803  170.5096   -6.4520 H        32        0    0.0000
    196 H          80.1539  171.9188   -5.4333 H        32        0    0.0000
    197 H          82.6638  171.4397   -5.5308 H        32        0    0.0000
    198 H          82.3344  170.1259   -6.6550 H        32        0    0.0000
    199 C          81.9890  172.1115   -7.4963 C.3      33        0    0.0000
    200 C          82.6487  171.5206   -8.7471 C.3      33        0    0.0000
    201 H          80.9600  172.4173   -7.7225 H        33        0    0.0000
    202 H          82.5240  173.0156   -7.1803 H        33        0    0.0000
    203 H          83.6999  171.8299   -8.7997 H        33        0    0.0000
    204 H          82.6451  170.4249   -8.6923 H        33        0    0.0000
    205 C          81.9252  171.9628  -10.0656 C.3      34        0    0.0000
    206 C          82.3720  171.1383  -11.2779 C.3      34        0    0.0000
    207 H          80.8417  171.8664   -9.9238 H        34        0    0.0000
    208 H          82.1268  173.0271  -10.2396 H        34        0    0.0000
    209 H          83.4536  171.2448  -11.4273 H        34        0    0.0000
    210 H          82.1820  170.0728  -11.0988 H        34        0    0.0000
    211 C          81.6355  171.5688  -12.5931 C.3      35        0    0.0000
    212 C          82.5869  171.6482  -13.7921 C.3      35        0    0.0000
    213 H          80.8306  170.8521  -12.7984 H        35        0    0.0000
    214 H          81.1564  172.5418  -12.4279 H        35        0    0.0000
    215 H          83.4830  172.2214  -13.5239 H        35        0    0.0000
    216 H          82.9272  170.6429  -14.0696 H        35        0    0.0000
    217 C          81.9146  172.3165  -15.0407 C.3      36        0    0.0000
    218 C          82.2419  171.5766  -16.3423 C.3      36        0    0.0000
    219 H          80.8288  172.3430  -14.8859 H        36        0    0.0000
    220 H          82.2489  173.3593  -15.1065 H        36        0    0.0000
    221 H          83.2987  171.7186  -16.6002 H        36        0    0.0000
    222 H          82.0922  170.4979  -16.2097 H        36        0    0.0000
    223 C          81.3590  172.0654  -17.5419 C.3      37        0    0.0000
    224 C          82.0147  171.7840  -18.8983 C.3      37        0    0.0000
    225 H          80.3817  171.5701  -17.4865 H        37        0    0.0000
    226 H          81.1739  173.1409  -17.4294 H        37        0    0.0000
    227 H          83.0324  172.1933  -18.9163 H        37        0    0.0000
    228 H          82.1075  170.7020  -19.0540 H        37        0    0.0000
    229 C          81.2020  172.3981  -20.0899 C.3      38        0    0.0000
    230 C          81.7606  171.9752  -21.4530 C.3      38        0    0.0000
    231 H          80.1537  172.0876  -20.0002 H        38        0    0.0000
    232 H          81.2154  173.4915  -20.0007 H        38        0    0.0000
    233 H          82.7994  172.3130  -21.5551 H        38        0    0.0000
    234 H          81.7762  170.8809  -21.5300 H        38        0    0.0000
    235 C          80.9218  172.5537  -22.6443 C.3      39        0    0.0000
    236 C          81.4949  172.1514  -24.0076 C.3      39        0    0.0000
    237 H          79.8871  172.2010  -22.5523 H        39        0    0.0000
    238 H          80.8909  173.6469  -22.5570 H        39        0    0.0000
    239 H          82.5316  172.4987  -24.0972 H        39        0    0.0000
    240 H          81.5200  171.0583  -24.0973 H        39        0    0.0000
    241 C          80.6611  172.7371  -25.1989 C.3      40        0    0.0000
    242 C          81.2339  172.3343  -26.5622 C.3      40        0    0.0000
    243 H          79.6242  172.3901  -25.1091 H        40        0    0.0000
    244 H          80.6363  173.8302  -25.1093 H        40        0    0.0000
    245 H          82.2713  172.6799  -26.6513 H        40        0    0.0000
    246 H          81.2571  171.2412  -26.6524 H        40        0    0.0000
    247 C          80.4015  172.9220  -27.7535 C.3      41        0    0.0000
    248 C          80.9702  172.5135  -29.1168 C.3      41        0    0.0000
    249 H          79.3629  172.5806  -27.6615 H        41        0    0.0000
    250 H          80.3825  174.0154  -27.6661 H        41        0    0.0000
    251 H          82.0092  172.8536  -29.2081 H        41        0    0.0000
    252 H          80.9877  171.4202  -29.2048 H        41        0    0.0000
    253 C          80.1391  173.1031  -30.3081 C.3      42        0    0.0000
    254 C          80.7084  172.6954  -31.6714 C.3      42        0    0.0000
    255 H          79.1002  172.7624  -30.2171 H        42        0    0.0000
    256 H          80.1210  174.1964  -30.2197 H        42        0    0.0000
    257 H          81.7478  173.0346  -31.7617 H        42        0    0.0000
    258 H          80.7250  171.6021  -31.7604 H        42        0    0.0000
    259 C          79.8786  173.2868  -32.8627 C.3      43        0    0.0000
    260 C          80.4482  172.8795  -34.2260 C.3      43        0    0.0000
    261 H          78.8393  172.9474  -32.7726 H        43        0    0.0000
    262 H          79.8618  174.3801  -32.7735 H        43        0    0.0000
    263 H          81.4871  173.2201  -34.3166 H        43        0    0.0000
    264 H          80.4663  171.7861  -34.3147 H        43        0    0.0000
    265 C          79.6173  173.4693  -35.4173 C.3      44        0    0.0000
    266 C          80.1893  173.0654  -36.7806 C.3      44        0    0.0000
    267 H          78.5791  173.1263  -35.3283 H        44        0    0.0000
    268 H          79.5967  174.5625  -35.3269 H        44        0    0.0000
    269 H          81.2278  173.4075  -36.8691 H        44        0    0.0000
    270 H          80.2088  171.9723  -36.8714 H        44        0    0.0000
    271 C          79.3592  173.6566  -37.9719 C.3      45        0    0.0000
    272 C          79.9294  173.2500  -39.3352 C.3      45        0    0.0000
    273 H          78.3202  173.3163  -37.8821 H        45        0    0.0000
    274 H          79.3416  174.7498  -37.8824 H        45        0    0.0000
    275 H          80.9678  173.5923  -39.4259 H        45        0    0.0000
    276 H          79.9491  172.1568  -39.4239 H        45        0    0.0000
    277 C          79.0976  173.8387  -40.5265 C.3      46        0    0.0000
    278 C          79.6685  173.4333  -41.8898 C.3      46        0    0.0000
    279 H          78.0594  173.4956  -40.4363 H        46        0    0.0000
    280 H          79.0770  174.9319  -40.4373 H        46        0    0.0000
    281 H          78.9071  172.9010  -42.4733 H        46        0    0.0000
    282 H          79.9385  174.3273  -42.4655 H        46        0    0.0000
    283 C          80.9338  172.5176  -41.7556 C.3      47        0    0.0000
    284 C          81.6830  172.3638  -43.0837 C.3      47        0    0.0000
    285 H          81.5997  172.9439  -40.9951 H        47        0    0.0000
    286 H          80.6206  171.5339  -41.3843 H        47        0    0.0000
    287 H          81.0171  171.9375  -43.8442 H        47        0    0.0000
    288 H          81.9962  173.3475  -43.4550 H        47        0    0.0000
    289 H          82.5628  171.7271  -42.9904 H        47        0    0.0000
    290 H          69.2798  191.7487  -40.4349 H         0        0    0.0000
@<TRIPOS>BOND
     1     1     2      1
     2     1     3      1
     3     1     4      1
     4     1   290      H
     5     2     5      1
     6     2     6      1
     7     2     7      1
     8     7     8      1
     9     7     9      1
    10     7    10      1
    11     8    11      1
    12     8    12      1
    13     8    13      1
    14    13    14      1
    15    13    15      1
    16    13    16      1
    17    14    17      1
    18    14    18      1
    19    14    19      1
    20    19    20      1
    21    19    21      1
    22    19    22      1
    23    20    23      1
    24    20    24      1
    25    20    25      1
    26    25    26      1
    27    25    27      1
    28    25    28      1
    29    26    29      1
    30    26    30      1
    31    26    31      1
    32    31    32      1
    33    31    33      1
    34    31    34      1
    35    32    35      1
    36    32    36      1
    37    32    37      1
    38    37    38      1
    39    37    39      1
    40    37    40      1
    41    38    41      1
    42    38    42      1
    43    38    43      1
    44    43    44      1
    45    43    45      1
    46    43    46      1
    47    44    47      1
    48    44    48      1
    49    44    49      1
    50    49    50      1
    51    49    51      1
    52    49    52      1
    53    50    53      1
    54    50    54      1
    55    50    55      1
    56    55    56      1
    57    55    57      1
    58    55    58      1
    59    56    59      1
    60    56    60      1
    61    56    61      1
    62    61    62      1
    63    61    63      1
    64    61    64      1
    65    62    65      1
    66    62    66      1
    67    62    67      1
    68    67    68      1
    69    67    69      1
    70    67    70      1
    71    68    71      1
    72    68    72      1
    73    68    73      1
    74    73    74      1
    75    73    75      1
    76    73    76      1
    77    74    77      1
    78    74    78      1
    79    74    79      1
    80    79    80      1
    81    79    81      1
    82    79    82      1
    83    80    83      1
    84    80    84      1
    85    80    85      1
    86    85    86      1
    87    85    87      1
    88    85    88      1
    89    86    89      1
    90    86    90      1
    91    86    91      1
    92    91    92      1
    93    91    93      1
    94    91    94      1
    95    92    95      1
    96    92    96      1
    97    92    97      1
    98    97    98      1
    99    97    99      1
   100    97   100      1
   101    98   101      1
   102    98   102      1
   103    98   103      1
   104   103   104      1
   105   103   105      1
   106   103   106      1
   107   104   107      1
   108   104   108      1
   109   104   109      1
   110   109   110      1
   111   109   111      1
   112   109   112      1
   113   110   113      1
   114   110   114      1
   115   110   115      1
   116   115   116      1
   117   115   117      1
   118   115   118      1
   119   116   119      1
   120   116   120      1
   121   116   121      1
   122   121   122      1
   123   121   123      1
   124   121   124      1
   125   122   125      1
   126   122   126      1
   127   122   127      1
   128   127   128      1
   129   127   129      1
   130   127   130      1
   131   128   131      1
   132   128   132      1
   133   128   133      1
   134   133   134      1
   135   133   135      1
   136   133   136      1
   137   134   137      1
   138   134   138      1
   139   134   139      1
   140   139   140      1
   141   139   141      1
   142   139   142      1
   143   140   143      1
   144   140   144      1
   145   140   145      1
   146   145   146      1
   147   145   147      1
   148   145   148      1
   149   146   149      1
   150   146   150      1
   151   146   151      1
   152   151   152      1
   153   151   153      1
   154   151   154      1
   155   152   155      1
   156   152   156      1
   157   152   157      1
   158   157   158      1
   159   157   159      1
   160   157   160      1
   161   158   161      1
   162   158   162      1
   163   158   163      1
   164   163   164      1
   165   163   165      1
   166   163   166      1
   167   164   167      1
   168   164   168      1
   169   164   169      1
   170   169   170      1
   171   169   171      1
   172   169   172      1
   173   170   173      1
   174   170   174      1
   175   170   175      1
   176   175   176      1
   177   175   177      1
   178   175   178      1
   179   176   179      1
   180   176   180      1
   181   176   181      1
   182   181   182      1
   183   181   183      1
   184   181   184      1
   185   182   185      1
   186   182   186      1
   187   182   187      1
   188   187   188      1
   189   187   189      1
   190   187   190      1
   191   188   191      1
   192   188   192      1
   193   188   193      1
   194   193   194      1
   195   193   195      1
   196   193   196      1
   197   194   197      1
   198   194   198      1
   199   194   199      1
   200   199   200      1
   201   199   201      1
   202   199   202      1
   203   200   203      1
   204   200   204      1
   205   200   205      1
   206   205   206      1
   207   205   207      1
   208   205   208      1
   209   206   209      1
   210   206   210      1
   211   206   211      1
   212   211   212      1
   213   211   213      1
   214   211   214      1
   215   212   215      1
   216   212   216      1
   217   212   217      1
   218   217   218      1
   219   217   219      1
   220   217   220      1
   221   218   221      1
   222   218   222      1
   223   218   223      1
   224   223   224      1
   225   223   225      1
   226   223   226      1
   227   224   227      1
   228   224   228      1
   229   224   229      1
   230   229   230      1
   231   229   231      1
   232   229   232      1
   233   230   233      1
   234   230   234      1
   235   230   235      1
   236   235   236      1
   237   235   237      1
   238   235   238      1
   239   236   239      1
   240   236   240      1
   241   236   241      1
   242   241   242      1
   243   241   243      1
   244   241   244      1
   245   242   245      1
   246   242   246      1
   247   242   247      1
   248   247   248      1
   249   247   249      1
   250   247   250      1
   251   248   251      1
   252   248   252      1
   253   248   253      1
   254   253   254      1
   255   253   255      1
   256   253   256      1
   257   254   257      1
   258   254   258      1
   259   254   259      1
   260   259   260      1
   261   259   261      1
   262   259   262      1
   263   260   263      1
   264   260   264      1
   265   260   265      1
   266   265   266      1
   267   265   267      1
   268   265   268      1
   269   266   269      1
   270   266   270      1
   271   266   271      1
   272   271   272      1
   273   271   273      1
   274   271   274      1
   275   272   275      1
   276   272   276      1
   277   272   277      1
   278   277   278      1
   279   277   279      1
   280   277   280      1
   281   278   281      1
   282   278   282      1
   283   278   283      1
   284   283   284      1
   285   283   285      1
   286   283   286      1
   287   284   287      1
   288   284   288      1
   289   284   289      H
