###
### Created by PolyChef-cpp17 on Thu Feb 27 19:40:29 2025
###

@<TRIPOS>MOLECULE
NO_INFO
464 463 1 0 0
SMALL
USER_CHARGES


@<TRIPOS>ATOM
      1 C         179.2798  139.7887  120.6551 C.3       0        0    0.0000
      2 C         178.4513  138.6375  120.0742 C.3       0        0    0.0000
      3 H         178.8875  140.7502  120.3015 H         0        0    0.0000
      4 H         180.3162  139.7220  120.3014 H         0        0    0.0000
      5 H         178.4070  137.8073  120.7900 H         0        0    0.0000
      6 H         177.4176  138.9649  119.9072 H         0        0    0.0000
      7 C         179.0382  138.1069  118.7209 C.3       1        0    0.0000
      8 C         179.6355  139.2306  117.8666 C.3       1        0    0.0000
      9 H         179.8043  137.3527  118.9392 H         1        0    0.0000
     10 H         178.2417  137.5956  118.1663 H         1        0    0.0000
     11 H         178.9443  140.0816  117.8279 H         1        0    0.0000
     12 H         180.5626  139.5982  118.3234 H         1        0    0.0000
     13 C         179.9443  138.7635  116.4024 C.3       2        0    0.0000
     14 C         179.8872  139.9209  115.3993 C.3       2        0    0.0000
     15 H         180.9370  138.2968  116.3820 H         2        0    0.0000
     16 H         179.2244  137.9853  116.1202 H         2        0    0.0000
     17 H         178.9668  140.4999  115.5450 H         2        0    0.0000
     18 H         180.7234  140.6098  115.5717 H         2        0    0.0000
     19 C         179.9408  139.4229  113.9138 C.3       3        0    0.0000
     20 C         179.8145  140.5744  112.9102 C.3       3        0    0.0000
     21 H         180.8847  138.8869  113.7544 H         3        0    0.0000
     22 H         179.1349  138.6956  113.7553 H         3        0    0.0000
     23 H         178.8760  141.1175  113.0771 H         3        0    0.0000
     24 H         180.6271  141.2957  113.0611 H         3        0    0.0000
     25 C         179.8517  140.0746  111.4248 C.3       4        0    0.0000
     26 C         179.8933  141.2336  110.4229 C.3       4        0    0.0000
     27 H         180.7290  139.4297  111.2906 H         4        0    0.0000
     28 H         178.9697  139.4490  111.2400 H         4        0    0.0000
     29 H         179.0041  141.8652  110.5412 H         4        0    0.0000
     30 H         180.7623  141.8726  110.6226 H         4        0    0.0000
     31 C         179.9641  140.7337  108.9388 C.3       5        0    0.0000
     32 C         178.9251  141.4193  108.0447 C.3       5        0    0.0000
     33 H         180.9738  140.9180  108.5514 H         5        0    0.0000
     34 H         179.8145  139.6470  108.9241 H         5        0    0.0000
     35 H         177.9628  141.4839  108.5677 H         5        0    0.0000
     36 H         179.2358  142.4490  107.8283 H         5        0    0.0000
     37 C         178.7137  140.6600  106.6896 C.3       6        0    0.0000
     38 C         179.0888  141.5195  105.4774 C.3       6        0    0.0000
     39 H         179.3151  139.7426  106.7009 H         6        0    0.0000
     40 H         177.6643  140.3478  106.6192 H         6        0    0.0000
     41 H         178.2216  142.1058  105.1492 H         6        0    0.0000
     42 H         179.8693  142.2393  105.7537 H         6        0    0.0000
     43 C         179.6007  140.6567  104.2729 C.3       7        0    0.0000
     44 C         179.0355  141.1380  102.9320 C.3       7        0    0.0000
     45 H         180.6970  140.6920  104.2534 H         7        0    0.0000
     46 H         179.3222  139.6096  104.4444 H         7        0    0.0000
     47 H         177.9525  141.2929  103.0141 H         7        0    0.0000
     48 H         179.4732  142.1081  102.6657 H         7        0    0.0000
     49 C         179.3140  140.1223  101.7709 C.3       8        0    0.0000
     50 C         179.1616  140.7649  100.3879 C.3       8        0    0.0000
     51 H         180.3277  139.7195  101.8889 H         8        0    0.0000
     52 H         178.6248  139.2745  101.8698 H         8        0    0.0000
     53 H         178.1257  141.0938  100.2380 H         8        0    0.0000
     54 H         179.7899  141.6615  100.3184 H         8        0    0.0000
     55 C         179.5525  139.7830   99.2301 C.3       9        0    0.0000
     56 C         179.3216  140.3969   97.8449 C.3       9        0    0.0000
     57 H         180.6065  139.5016   99.3459 H         9        0    0.0000
     58 H         178.9670  138.8612   99.3354 H         9        0    0.0000
     59 H         178.2711  140.6936   97.7353 H         9        0    0.0000
     60 H         179.9199  141.3096   97.7335 H         9        0    0.0000
     61 C         179.6904  139.4065   96.6871 C.3      10        0    0.0000
     62 C         179.4586  140.0201   95.3020 C.3      10        0    0.0000
     63 H         180.7410  139.1103   96.7964 H        10        0    0.0000
     64 H         179.0925  138.4935   96.7990 H        10        0    0.0000
     65 H         178.4087  140.3195   95.1940 H        10        0    0.0000
     66 H         180.0591  140.9312   95.1888 H        10        0    0.0000
     67 C         179.8226  139.0279   94.1442 C.3      11        0    0.0000
     68 C         179.6014  139.6454   92.7590 C.3      11        0    0.0000
     69 H         180.8701  138.7221   94.2568 H        11        0    0.0000
     70 H         179.2161  138.1202   94.2526 H        11        0    0.0000
     71 H         178.5536  139.9502   92.6460 H        11        0    0.0000
     72 H         180.2071  140.5537   92.6509 H        11        0    0.0000
     73 C         179.9667  138.6537   91.6012 C.3      12        0    0.0000
     74 C         179.7391  139.2688   90.2160 C.3      12        0    0.0000
     75 H         181.0159  138.3527   91.7113 H        12        0    0.0000
     76 H         179.3646  137.7434   91.7121 H        12        0    0.0000
     77 H         178.6905  139.5722   90.1068 H        12        0    0.0000
     78 H         180.3433  140.1776   90.1040 H        12        0    0.0000
     79 C         180.1008  138.2757   89.0582 C.3      13        0    0.0000
     80 C         179.8801  138.8934   87.6730 C.3      13        0    0.0000
     81 H         181.1479  137.9682   89.1704 H        13        0    0.0000
     82 H         179.4928  137.3691   89.1670 H        13        0    0.0000
     83 H         178.8320  139.1967   87.5590 H        13        0    0.0000
     84 H         180.4846  139.8026   87.5658 H        13        0    0.0000
     85 C         180.2481  137.9026   86.5152 C.3      14        0    0.0000
     86 C         180.0336  138.5225   85.1300 C.3      14        0    0.0000
     87 H         181.2948  137.5955   86.6319 H        14        0    0.0000
     88 H         179.6402  136.9954   86.6196 H        14        0    0.0000
     89 H         178.9678  138.7277   84.9707 H        14        0    0.0000
     90 H         180.5532  139.4866   85.0648 H        14        0    0.0000
     91 C         180.5471  137.5928   83.9770 C.3      15        0    0.0000
     92 C         180.3176  138.2054   82.5910 C.3      15        0    0.0000
     93 H         181.6158  137.3974   84.1297 H        15        0    0.0000
     94 H         180.0363  136.6245   84.0496 H        15        0    0.0000
     95 H         180.1813  139.2906   82.6773 H        15        0    0.0000
     96 H         181.2005  138.0480   81.9593 H        15        0    0.0000
     97 C         179.0659  137.5947   81.8714 C.3      16        0    0.0000
     98 C         178.8223  138.2244   80.4954 C.3      16        0    0.0000
     99 H         179.2099  136.5120   81.7694 H        16        0    0.0000
    100 H         178.1860  137.7366   82.5111 H        16        0    0.0000
    101 H         179.3249  139.1975   80.4327 H        16        0    0.0000
    102 H         179.2581  137.5937   79.7106 H        16        0    0.0000
    103 C         177.2967  138.4233   80.1947 C.3      17        0    0.0000
    104 C         177.0477  139.5248   79.1585 C.3      17        0    0.0000
    105 H         176.8792  137.4726   79.8409 H        17        0    0.0000
    106 H         176.7802  138.6649   81.1320 H        17        0    0.0000
    107 H         177.6076  140.4288   79.4285 H        17        0    0.0000
    108 H         177.4174  139.2071   78.1756 H        17        0    0.0000
    109 C         175.5284  139.8900   79.0330 C.3      18        0    0.0000
    110 C         175.2799  140.9946   78.0000 C.3      18        0    0.0000
    111 H         174.9691  138.9867   78.7597 H        18        0    0.0000
    112 H         175.1579  140.2044   80.0165 H        18        0    0.0000
    113 H         175.8359  141.8993   78.2756 H        18        0    0.0000
    114 H         175.6543  140.6819   77.0174 H        18        0    0.0000
    115 C         173.7599  141.3556   77.8702 C.3      19        0    0.0000
    116 C         173.5102  142.4524   76.8292 C.3      19        0    0.0000
    117 H         173.2028  140.4492   77.6028 H        19        0    0.0000
    118 H         173.3876  141.6763   78.8511 H        19        0    0.0000
    119 H         174.0685  143.3583   77.0959 H        19        0    0.0000
    120 H         173.8812  142.1311   75.8480 H        19        0    0.0000
    121 C         171.9905  142.8148   76.7009 C.3      20        0    0.0000
    122 C         171.7435  143.9296   75.6785 C.3      20        0    0.0000
    123 H         171.4347  141.9130   76.4157 H        20        0    0.0000
    124 H         171.6149  143.1180   77.6861 H        20        0    0.0000
    125 H         172.3130  144.8258   75.9542 H        20        0    0.0000
    126 H         172.1033  143.6195   74.6896 H        20        0    0.0000
    127 C         170.2265  144.3091   75.5681 C.3      21        0    0.0000
    128 C         169.9855  145.4584   74.5831 C.3      21        0    0.0000
    129 H         169.6618  143.4217   75.2562 H        21        0    0.0000
    130 H         169.8573  144.5836   76.5640 H        21        0    0.0000
    131 H         170.5124  146.3595   74.9203 H        21        0    0.0000
    132 H         170.3968  145.2027   73.5987 H        21        0    0.0000
    133 C         168.4625  145.7938   74.4227 C.3      22        0    0.0000
    134 C         168.2163  146.8943   73.3849 C.3      22        0    0.0000
    135 H         167.9275  144.8799   74.1362 H        22        0    0.0000
    136 H         168.0634  146.1000   75.3976 H        22        0    0.0000
    137 H         168.1812  147.8743   73.8768 H        22        0    0.0000
    138 H         169.0479  146.9302   72.6702 H        22        0    0.0000
    139 C         166.8799  146.6775   72.5947 C.3      23        0    0.0000
    140 C         166.6968  147.7031   71.4706 C.3      23        0    0.0000
    141 H         166.8745  145.6613   72.1813 H        23        0    0.0000
    142 H         166.0399  146.7360   73.2978 H        23        0    0.0000
    143 H         166.3483  148.6572   71.8850 H        23        0    0.0000
    144 H         167.6593  147.9038   70.9840 H        23        0    0.0000
    145 C         165.6734  147.2195   70.3860 C.3      24        0    0.0000
    146 C         165.4535  148.2655   69.2876 C.3      24        0    0.0000
    147 H         166.0401  146.2837   69.9463 H        24        0    0.0000
    148 H         164.7214  146.9847   70.8779 H        24        0    0.0000
    149 H         165.1734  149.2274   69.7348 H        24        0    0.0000
    150 H         166.3869  148.4342   68.7365 H        24        0    0.0000
    151 C         164.3382  147.8361   68.2730 C.3      25        0    0.0000
    152 C         163.8145  149.0187   67.4507 C.3      25        0    0.0000
    153 H         164.7443  147.0651   67.6066 H        25        0    0.0000
    154 H         163.5149  147.3705   68.8288 H        25        0    0.0000
    155 H         164.5441  149.8380   67.4631 H        25        0    0.0000
    156 H         163.6914  148.7223   66.4017 H        25        0    0.0000
    157 C         162.4431  149.5552   67.9884 C.3      26        0    0.0000
    158 C         161.9878  150.8224   67.2562 C.3      26        0    0.0000
    159 H         161.6881  148.7666   67.8805 H        26        0    0.0000
    160 H         162.5384  149.7552   69.0628 H        26        0    0.0000
    161 H         162.0691  150.6799   66.1715 H        26        0    0.0000
    162 H         160.9301  151.0206   67.4695 H        26        0    0.0000
    163 C         162.8299  152.0798   67.6652 C.3      27        0    0.0000
    164 C         162.3064  153.3657   67.0160 C.3      27        0    0.0000
    165 H         162.8134  152.1764   68.7578 H        27        0    0.0000
    166 H         163.8760  151.9131   67.3795 H        27        0    0.0000
    167 H         161.9064  154.0390   67.7841 H        27        0    0.0000
    168 H         163.1287  153.9010   66.5250 H        27        0    0.0000
    169 C         161.1846  153.0830   65.9580 C.3      28        0    0.0000
    170 C         160.8399  154.3262   65.1306 C.3      28        0    0.0000
    171 H         161.5172  152.2722   65.2981 H        28        0    0.0000
    172 H         160.2908  152.7183   66.4792 H        28        0    0.0000
    173 H         161.6631  155.0498   65.1781 H        28        0    0.0000
    174 H         160.7204  154.0539   64.0746 H        28        0    0.0000
    175 C         159.5255  155.0230   65.6247 C.3      29        0    0.0000
    176 C         158.4697  155.1227   64.5182 C.3      29        0    0.0000
    177 H         159.1254  154.4596   66.4767 H        29        0    0.0000
    178 H         159.7748  156.0240   65.9980 H        29        0    0.0000
    179 H         157.8949  156.0505   64.6292 H        29        0    0.0000
    180 H         158.9570  155.1696   63.5364 H        29        0    0.0000
    181 C         157.4777  153.9090   64.5324 C.3      30        0    0.0000
    182 C         156.7758  153.7165   63.1836 C.3      30        0    0.0000
    183 H         158.0331  153.0015   64.8003 H        30        0    0.0000
    184 H         156.7348  154.0687   65.3237 H        30        0    0.0000
    185 H         156.1347  154.5800   62.9666 H        30        0    0.0000
    186 H         157.5180  153.6647   62.3774 H        30        0    0.0000
    187 C         155.9008  152.4163   63.1493 C.3      31        0    0.0000
    188 C         154.4611  152.6966   62.7048 C.3      31        0    0.0000
    189 H         156.3696  151.6923   62.4714 H        31        0    0.0000
    190 H         155.9045  151.9612   64.1476 H        31        0    0.0000
    191 H         154.1308  153.6689   63.0907 H        31        0    0.0000
    192 H         154.4104  152.7582   61.6107 H        31        0    0.0000
    193 C         153.4622  151.5925   63.1955 C.3      32        0    0.0000
    194 C         152.9582  150.7129   62.0460 C.3      32        0    0.0000
    195 H         153.9621  150.9740   63.9512 H        32        0    0.0000
    196 H         152.6157  152.0787   63.6961 H        32        0    0.0000
    197 H         152.0252  151.1228   61.6398 H        32        0    0.0000
    198 H         153.6861  150.7131   61.2251 H        32        0    0.0000
    199 C         152.7058  149.2329   62.4970 C.3      33        0    0.0000
    200 C         151.3658  148.6908   61.9874 C.3      33        0    0.0000
    201 H         153.5287  148.6065   62.1310 H        33        0    0.0000
    202 H         152.7380  149.1868   63.5927 H        33        0    0.0000
    203 H         150.5726  149.4298   62.1558 H        33        0    0.0000
    204 H         151.4154  148.5231   60.9044 H        33        0    0.0000
    205 C         150.9627  147.3481   62.6888 C.3      34        0    0.0000
    206 C         149.8654  146.5999   61.9239 C.3      34        0    0.0000
    207 H         151.8545  146.7160   62.7816 H        34        0    0.0000
    208 H         150.6259  147.5694   63.7092 H        34        0    0.0000
    209 H         148.9619  147.2189   61.8607 H        34        0    0.0000
    210 H         150.1889  146.4086   60.8932 H        34        0    0.0000
    211 C         149.4961  145.2342   62.5992 C.3      35        0    0.0000
    212 C         148.1300  144.7108   62.1421 C.3      35        0    0.0000
    213 H         150.2776  144.5009   62.3644 H        35        0    0.0000
    214 H         149.5036  145.3649   63.6884 H        35        0    0.0000
    215 H         147.3872  145.5174   62.1775 H        35        0    0.0000
    216 H         148.1846  144.3785   61.0980 H        35        0    0.0000
    217 C         147.6243  143.5190   63.0260 C.3      36        0    0.0000
    218 C         146.1214  143.2691   62.8594 C.3      36        0    0.0000
    219 H         148.1876  142.6165   62.7583 H        36        0    0.0000
    220 H         147.8556  143.7348   64.0765 H        36        0    0.0000
    221 H         145.5962  144.2206   62.7096 H        36        0    0.0000
    222 H         145.9378  142.6635   61.9633 H        36        0    0.0000
    223 C         145.4995  142.5385   64.0992 C.3      37        0    0.0000
    224 C         143.9725  142.4418   64.0107 C.3      37        0    0.0000
    225 H         145.9363  141.5349   64.1739 H        37        0    0.0000
    226 H         145.7903  143.0772   65.0096 H        37        0    0.0000
    227 H         143.6474  142.5652   62.9703 H        37        0    0.0000
    228 H         143.6396  141.4460   64.3288 H        37        0    0.0000
    229 C         143.2567  143.5202   64.8951 C.3      38        0    0.0000
    230 C         141.7361  143.3312   64.9245 C.3      38        0    0.0000
    231 H         143.6620  143.4682   65.9133 H        38        0    0.0000
    232 H         143.5046  144.5163   64.5079 H        38        0    0.0000
    233 H         141.2801  144.0558   65.6105 H        38        0    0.0000
    234 H         141.3133  143.5282   63.9315 H        38        0    0.0000
    235 C         141.3256  141.8855   65.3706 C.3      39        0    0.0000
    236 C         139.8071  141.7289   65.5069 C.3      39        0    0.0000
    237 H         141.7138  141.1661   64.6390 H        39        0    0.0000
    238 H         141.8145  141.6581   66.3260 H        39        0    0.0000
    239 H         139.4687  140.8452   64.9518 H        39        0    0.0000
    240 H         139.5388  141.5627   66.5576 H        39        0    0.0000
    241 C         139.0306  142.9845   64.9797 C.3      40        0    0.0000
    242 C         137.5883  143.0345   65.4959 C.3      40        0    0.0000
    243 H         139.5712  143.8888   65.2857 H        40        0    0.0000
    244 H         139.0372  142.9695   63.8828 H        40        0    0.0000
    245 H         136.9054  142.6182   64.7449 H        40        0    0.0000
    246 H         137.4880  142.4110   66.3929 H        40        0    0.0000
    247 C         137.1311  144.4937   65.8409 C.3      41        0    0.0000
    248 C         135.6207  144.5869   66.0843 C.3      41        0    0.0000
    249 H         137.6770  144.8346   66.7294 H        41        0    0.0000
    250 H         137.4213  145.1591   65.0183 H        41        0    0.0000
    251 H         135.0786  144.0564   65.2917 H        41        0    0.0000
    252 H         135.3607  144.0930   67.0288 H        41        0    0.0000
    253 C         135.1175  146.0707   66.1348 C.3      42        0    0.0000
    254 C         133.9222  146.2469   67.0779 C.3      42        0    0.0000
    255 H         135.9465  146.7146   66.4537 H        42        0    0.0000
    256 H         134.8457  146.3866   65.1199 H        42        0    0.0000
    257 H         133.0291  145.7800   66.6445 H        42        0    0.0000
    258 H         134.1150  145.7355   68.0291 H        42        0    0.0000
    259 C         133.6127  147.7559   67.3691 C.3      43        0    0.0000
    260 C         133.2947  148.0088   68.8469 C.3      43        0    0.0000
    261 H         134.4755  148.3596   67.0613 H        43        0    0.0000
    262 H         132.7685  148.0709   66.7433 H        43        0    0.0000
    263 H         132.2207  147.8775   69.0284 H        43        0    0.0000
    264 H         133.8125  147.2729   69.4745 H        43        0    0.0000
    265 C         133.7125  149.4481   69.3066 C.3      44        0    0.0000
    266 C         132.5003  150.3407   69.5947 C.3      44        0    0.0000
    267 H         134.3398  149.3649   70.2028 H        44        0    0.0000
    268 H         134.3364  149.9014   68.5264 H        44        0    0.0000
    269 H         131.6604  150.0541   68.9497 H        44        0    0.0000
    270 H         132.1657  150.1980   70.6297 H        44        0    0.0000
    271 C         132.8145  151.8600   69.3701 C.3      45        0    0.0000
    272 C         132.9543  152.6256   70.6904 C.3      45        0    0.0000
    273 H         133.7383  151.9473   68.7850 H        45        0    0.0000
    274 H         132.0141  152.3005   68.7627 H        45        0    0.0000
    275 H         132.0029  153.1069   70.9487 H        45        0    0.0000
    276 H         133.1869  151.9297   71.5060 H        45        0    0.0000
    277 C         134.0737  153.7211   70.6262 C.3      46        0    0.0000
    278 C         134.1609  154.5389   71.9196 C.3      46        0    0.0000
    279 H         135.0352  153.2328   70.4244 H        46        0    0.0000
    280 H         133.8719  154.3835   69.7753 H        46        0    0.0000
    281 H         133.1972  155.0208   72.1256 H        46        0    0.0000
    282 H         134.3706  153.8775   72.7694 H        46        0    0.0000
    283 C         135.2730  155.6418   71.8513 C.3      47        0    0.0000
    284 C         135.4468  156.3748   73.1860 C.3      47        0    0.0000
    285 H         136.2189  155.1722   71.5540 H        47        0    0.0000
    286 H         135.0139  156.3566   71.0604 H        47        0    0.0000
    287 H         134.5286  156.9197   73.4382 H        47        0    0.0000
    288 H         135.6156  155.6514   73.9933 H        47        0    0.0000
    289 C         136.6432  157.3873   73.1563 C.3      48        0    0.0000
    290 C         136.9575  157.9559   74.5444 C.3      48        0    0.0000
    291 H         137.5262  156.8794   72.7491 H        48        0    0.0000
    292 H         136.4002  158.2016   72.4624 H        48        0    0.0000
    293 H         136.1320  158.5928   74.8858 H        48        0    0.0000
    294 H         137.0486  157.1408   75.2730 H        48        0    0.0000
    295 C         138.2815  158.7952   74.5569 C.3      49        0    0.0000
    296 C         139.1587  158.4782   75.7730 C.3      49        0    0.0000
    297 H         138.8354  158.5955   73.6312 H        49        0    0.0000
    298 H         138.0243  159.8616   74.5463 H        49        0    0.0000
    299 H         138.7472  158.9588   76.6692 H        49        0    0.0000
    300 H         139.1579  157.3983   75.9662 H        49        0    0.0000
    301 C         140.6392  158.9555   75.5782 C.3      50        0    0.0000
    302 C         141.0355  160.0435   76.5823 C.3      50        0    0.0000
    303 H         141.3058  158.0901   75.6787 H        50        0    0.0000
    304 H         140.7587  159.3280   74.5533 H        50        0    0.0000
    305 H         140.1394  160.5520   76.9592 H        50        0    0.0000
    306 H         141.5301  159.5916   77.4510 H        50        0    0.0000
    307 C         141.9954  161.1113   75.9532 C.3      51        0    0.0000
    308 C         143.1621  161.4630   76.8829 C.3      51        0    0.0000
    309 H         142.3773  160.7255   74.9999 H        51        0    0.0000
    310 H         141.4162  162.0131   75.7189 H        51        0    0.0000
    311 H         142.7859  161.6971   77.8865 H        51        0    0.0000
    312 H         143.8307  160.5999   76.9904 H        51        0    0.0000
    313 C         143.9934  162.6837   76.3574 C.3      52        0    0.0000
    314 C         144.3984  163.6393   77.4852 C.3      52        0    0.0000
    315 H         144.8869  162.3081   75.8436 H        52        0    0.0000
    316 H         143.3995  163.2188   75.6061 H        52        0    0.0000
    317 H         144.3513  163.1221   78.4515 H        52        0    0.0000
    318 H         145.4385  163.9609   77.3504 H        52        0    0.0000
    319 C         143.4808  164.9088   77.5464 C.3      53        0    0.0000
    320 C         143.7825  165.7853   78.7670 C.3      53        0    0.0000
    321 H         143.6166  165.4880   76.6246 H        53        0    0.0000
    322 H         142.4322  164.5867   77.5645 H        53        0    0.0000
    323 H         143.7924  165.1725   79.6769 H        53        0    0.0000
    324 H         144.7820  166.2280   78.6744 H        53        0    0.0000
    325 C         142.7341  166.9371   78.9450 C.3      54        0    0.0000
    326 C         143.0622  167.8419   80.1378 C.3      54        0    0.0000
    327 H         142.6992  167.5292   78.0221 H        54        0    0.0000
    328 H         141.7391  166.4931   79.0722 H        54        0    0.0000
    329 H         143.0211  167.2651   81.0700 H        54        0    0.0000
    330 H         144.0865  168.2247   80.0491 H        54        0    0.0000
    331 C         142.0771  169.0561   80.2511 C.3      55        0    0.0000
    332 C         142.8113  170.3786   80.4981 C.3      55        0    0.0000
    333 H         141.4871  169.1201   79.3284 H        55        0    0.0000
    334 H         141.3683  168.8616   81.0655 H        55        0    0.0000
    335 H         143.3569  170.3342   81.4488 H        55        0    0.0000
    336 H         143.5593  170.5459   79.7132 H        55        0    0.0000
    337 C         141.8334  171.6033   80.5335 C.3      56        0    0.0000
    338 C         142.0414  172.4770   81.7755 C.3      56        0    0.0000
    339 H         141.9810  172.2001   79.6248 H        56        0    0.0000
    340 H         140.8013  171.2328   80.5028 H        56        0    0.0000
    341 H         142.5573  171.9042   82.5562 H        56        0    0.0000
    342 H         142.6871  173.3297   81.5317 H        56        0    0.0000
    343 C         140.6888  173.0169   82.3554 C.3      57        0    0.0000
    344 C         140.7308  173.1715   83.8797 C.3      57        0    0.0000
    345 H         140.4628  173.9821   81.8855 H        57        0    0.0000
    346 H         139.8822  172.3306   82.0690 H        57        0    0.0000
    347 H         141.4268  172.4424   84.3127 H        57        0    0.0000
    348 H         141.1099  174.1658   84.1466 H        57        0    0.0000
    349 C         139.3207  172.9755   84.5358 C.3      58        0    0.0000
    350 C         139.3717  173.0790   86.0641 C.3      58        0    0.0000
    351 H         138.6342  173.7291   84.1304 H        58        0    0.0000
    352 H         138.9252  171.9964   84.2381 H        58        0    0.0000
    353 H         139.5711  174.1151   86.3645 H        58        0    0.0000
    354 H         138.3984  172.8087   86.4922 H        58        0    0.0000
    355 C         140.4723  172.1519   86.6860 C.3      59        0    0.0000
    356 C         140.6329  172.3722   88.1942 C.3      59        0    0.0000
    357 H         140.2088  171.1062   86.4845 H        59        0    0.0000
    358 H         141.4242  172.3412   86.1747 H        59        0    0.0000
    359 H         140.6432  171.4074   88.7163 H        59        0    0.0000
    360 H         141.5961  172.8539   88.4035 H        59        0    0.0000
    361 C         139.4850  173.2575   88.7909 C.3      60        0    0.0000
    362 C         139.6076  173.4211   90.3099 C.3      60        0    0.0000
    363 H         139.5068  174.2402   88.3038 H        60        0    0.0000
    364 H         138.5195  172.8020   88.5384 H        60        0    0.0000
    365 H         140.4773  174.0444   90.5521 H        60        0    0.0000
    366 H         138.7267  173.9425   90.7044 H        60        0    0.0000
    367 C         139.7518  172.0446   91.0460 C.3      61        0    0.0000
    368 C         139.9423  172.2114   92.5576 C.3      61        0    0.0000
    369 H         138.8587  171.4403   90.8438 H        61        0    0.0000
    370 H         140.6032  171.5018   90.6172 H        61        0    0.0000
    371 H         139.8123  171.2459   93.0620 H        61        0    0.0000
    372 H         140.9652  172.5442   92.7734 H        61        0    0.0000
    373 C         138.9349  173.2427   93.1732 C.3      62        0    0.0000
    374 C         139.2402  173.5458   94.6442 C.3      62        0    0.0000
    375 H         138.9707  174.1671   92.5834 H        62        0    0.0000
    376 H         137.9172  172.8452   93.0743 H        62        0    0.0000
    377 H         139.6857  174.5439   94.7381 H        62        0    0.0000
    378 H         138.3103  173.5599   95.2262 H        62        0    0.0000
    379 C         140.2165  172.4951   95.2771 C.3      63        0    0.0000
    380 C         140.3753  172.6869   96.7894 C.3      63        0    0.0000
    381 H         139.8386  171.4876   95.0633 H        63        0    0.0000
    382 H         141.1925  172.5769   94.7830 H        63        0    0.0000
    383 H         141.0172  171.8993   97.2031 H        63        0    0.0000
    384 H         140.8743  173.6416   96.9971 H        63        0    0.0000
    385 C         138.9987  172.6626   97.5391 C.3      64        0    0.0000
    386 C         139.1463  172.9650   99.0343 C.3      64        0    0.0000
    387 H         138.3285  173.3947   97.0716 H        64        0    0.0000
    388 H         138.5367  171.6776   97.3983 H        64        0    0.0000
    389 H         139.2707  174.0439   99.1895 H        64        0    0.0000
    390 H         138.2339  172.6730   99.5690 H        64        0    0.0000
    391 C         140.3674  172.2184   99.6738 C.3      65        0    0.0000
    392 C         140.5529  172.5700  101.1540 C.3      65        0    0.0000
    393 H         140.2202  171.1373   99.5595 H        65        0    0.0000
    394 H         141.2730  172.4743   99.1100 H        65        0    0.0000
    395 H         141.2625  171.8748  101.6196 H        65        0    0.0000
    396 H         140.9854  173.5735  101.2509 H        65        0    0.0000
    397 C         139.2031  172.5225  101.9496 C.3      66        0    0.0000
    398 C         139.3775  172.9376  103.4147 C.3      66        0    0.0000
    399 H         138.4782  173.1814  101.4557 H        66        0    0.0000
    400 H         138.7947  171.5059  101.8927 H        66        0    0.0000
    401 H         139.4980  174.0257  103.4855 H        66        0    0.0000
    402 H         138.4775  172.6823  103.9877 H        66        0    0.0000
    403 C         140.6156  172.2475  104.0843 C.3      67        0    0.0000
    404 C         140.7285  172.5786  105.5765 C.3      67        0    0.0000
    405 H         140.5338  171.1624  103.9450 H        67        0    0.0000
    406 H         141.5246  172.5650  103.5587 H        67        0    0.0000
    407 H         141.5453  172.0026  106.0289 H        67        0    0.0000
    408 H         140.9795  173.6384  105.7087 H        67        0    0.0000
    409 C         139.4028  172.2724  106.3550 C.3      68        0    0.0000
    410 C         139.4545  172.7636  107.8059 C.3      68        0    0.0000
    411 H         138.5655  172.7457  105.8273 H        68        0    0.0000
    412 H         139.2198  171.1910  106.3303 H        68        0    0.0000
    413 H         139.2919  173.8479  107.8420 H        68        0    0.0000
    414 H         138.6458  172.3042  108.3877 H        68        0    0.0000
    415 C         140.8231  172.4348  108.4960 C.3      69        0    0.0000
    416 C         140.8282  172.8067  109.9828 C.3      69        0    0.0000
    417 H         141.0319  171.3645  108.3753 H        69        0    0.0000
    418 H         141.6222  172.9727  107.9710 H        69        0    0.0000
    419 H         141.7682  172.4850  110.4479 H        69        0    0.0000
    420 H         140.7764  173.8965  110.0982 H        69        0    0.0000
    421 C         139.6317  172.1588  110.7614 C.3      70        0    0.0000
    422 C         139.5606  172.6338  112.2169 C.3      70        0    0.0000
    423 H         138.6975  172.4022  110.2402 H        70        0    0.0000
    424 H         139.7367  171.0674  110.7266 H        70        0    0.0000
    425 H         139.0940  173.6255  112.2666 H        70        0    0.0000
    426 H         138.9259  171.9574  112.8027 H        70        0    0.0000
    427 C         140.9755  172.7068  112.8878 C.3      71        0    0.0000
    428 C         140.8951  173.0668  114.3754 C.3      71        0    0.0000
    429 H         141.4771  171.7393  112.7615 H        71        0    0.0000
    430 H         141.5823  173.4484  112.3536 H        71        0    0.0000
    431 H         141.8930  173.0186  114.8286 H        71        0    0.0000
    432 H         140.5448  174.0997  114.4940 H        71        0    0.0000
    433 C         139.9344  172.1135  115.1663 C.3      72        0    0.0000
    434 C         139.7431  172.5577  116.6207 C.3      72        0    0.0000
    435 H         138.9657  172.0816  114.6522 H        72        0    0.0000
    436 H         140.3415  171.0952  115.1345 H        72        0    0.0000
    437 H         139.0034  173.3661  116.6729 H        72        0    0.0000
    438 H         139.3457  171.7280  117.2183 H        72        0    0.0000
    439 C         141.0804  173.0537  117.2711 C.3      73        0    0.0000
    440 C         140.9002  173.4470  118.7415 C.3      73        0    0.0000
    441 H         141.8321  172.2594  117.1836 H        73        0    0.0000
    442 H         141.4573  173.9088  116.6965 H        73        0    0.0000
    443 H         141.8753  173.6638  119.1951 H        73        0    0.0000
    444 H         140.3071  174.3669  118.8148 H        73        0    0.0000
    445 C         140.1941  172.3227  119.5750 C.3      74        0    0.0000
    446 C         139.7769  172.8074  120.9679 C.3      74        0    0.0000
    447 H         139.3155  171.9704  119.0205 H        74        0    0.0000
    448 H         140.8751  171.4670  119.6628 H        74        0    0.0000
    449 H         139.2611  172.0033  121.5071 H        74        0    0.0000
    450 H         140.6651  173.0636  121.5587 H        74        0    0.0000
    451 C         138.8345  174.0585  120.9039 C.3      75        0    0.0000
    452 C         138.4869  174.5956  122.2967 C.3      75        0    0.0000
    453 H         139.3246  174.8404  120.3107 H        75        0    0.0000
    454 H         137.9180  173.7837  120.3672 H        75        0    0.0000
    455 H         137.9182  175.5296  122.2085 H        75        0    0.0000
    456 H         137.8417  173.8826  122.8246 H        75        0    0.0000
    457 C         139.7637  174.8617  123.1665 C.3      76        0    0.0000
    458 C         139.8298  176.3062  123.6744 C.3      76        0    0.0000
    459 H         139.7659  174.1646  124.0136 H        76        0    0.0000
    460 H         140.6537  174.6324  122.5675 H        76        0    0.0000
    461 H         139.8276  177.0033  122.8273 H        76        0    0.0000
    462 H         138.9398  176.5355  124.2734 H        76        0    0.0000
    463 H         140.7176  176.4912  124.2792 H        76        0    0.0000
    464 H         179.2798  139.7887  121.7450 H         0        0    0.0000
@<TRIPOS>BOND
     1     1     2      1
     2     1     3      1
     3     1     4      1
     4     1   464      H
     5     2     5      1
     6     2     6      1
     7     2     7      1
     8     7     8      1
     9     7     9      1
    10     7    10      1
    11     8    11      1
    12     8    12      1
    13     8    13      1
    14    13    14      1
    15    13    15      1
    16    13    16      1
    17    14    17      1
    18    14    18      1
    19    14    19      1
    20    19    20      1
    21    19    21      1
    22    19    22      1
    23    20    23      1
    24    20    24      1
    25    20    25      1
    26    25    26      1
    27    25    27      1
    28    25    28      1
    29    26    29      1
    30    26    30      1
    31    26    31      1
    32    31    32      1
    33    31    33      1
    34    31    34      1
    35    32    35      1
    36    32    36      1
    37    32    37      1
    38    37    38      1
    39    37    39      1
    40    37    40      1
    41    38    41      1
    42    38    42      1
    43    38    43      1
    44    43    44      1
    45    43    45      1
    46    43    46      1
    47    44    47      1
    48    44    48      1
    49    44    49      1
    50    49    50      1
    51    49    51      1
    52    49    52      1
    53    50    53      1
    54    50    54      1
    55    50    55      1
    56    55    56      1
    57    55    57      1
    58    55    58      1
    59    56    59      1
    60    56    60      1
    61    56    61      1
    62    61    62      1
    63    61    63      1
    64    61    64      1
    65    62    65      1
    66    62    66      1
    67    62    67      1
    68    67    68      1
    69    67    69      1
    70    67    70      1
    71    68    71      1
    72    68    72      1
    73    68    73      1
    74    73    74      1
    75    73    75      1
    76    73    76      1
    77    74    77      1
    78    74    78      1
    79    74    79      1
    80    79    80      1
    81    79    81      1
    82    79    82      1
    83    80    83      1
    84    80    84      1
    85    80    85      1
    86    85    86      1
    87    85    87      1
    88    85    88      1
    89    86    89      1
    90    86    90      1
    91    86    91      1
    92    91    92      1
    93    91    93      1
    94    91    94      1
    95    92    95      1
    96    92    96      1
    97    92    97      1
    98    97    98      1
    99    97    99      1
   100    97   100      1
   101    98   101      1
   102    98   102      1
   103    98   103      1
   104   103   104      1
   105   103   105      1
   106   103   106      1
   107   104   107      1
   108   104   108      1
   109   104   109      1
   110   109   110      1
   111   109   111      1
   112   109   112      1
   113   110   113      1
   114   110   114      1
   115   110   115      1
   116   115   116      1
   117   115   117      1
   118   115   118      1
   119   116   119      1
   120   116   120      1
   121   116   121      1
   122   121   122      1
   123   121   123      1
   124   121   124      1
   125   122   125      1
   126   122   126      1
   127   122   127      1
   128   127   128      1
   129   127   129      1
   130   127   130      1
   131   128   131      1
   132   128   132      1
   133   128   133      1
   134   133   134      1
   135   133   135      1
   136   133   136      1
   137   134   137      1
   138   134   138      1
   139   134   139      1
   140   139   140      1
   141   139   141      1
   142   139   142      1
   143   140   143      1
   144   140   144      1
   145   140   145      1
   146   145   146      1
   147   145   147      1
   148   145   148      1
   149   146   149      1
   150   146   150      1
   151   146   151      1
   152   151   152      1
   153   151   153      1
   154   151   154      1
   155   152   155      1
   156   152   156      1
   157   152   157      1
   158   157   158      1
   159   157   159      1
   160   157   160      1
   161   158   161      1
   162   158   162      1
   163   158   163      1
   164   163   164      1
   165   163   165      1
   166   163   166      1
   167   164   167      1
   168   164   168      1
   169   164   169      1
   170   169   170      1
   171   169   171      1
   172   169   172      1
   173   170   173      1
   174   170   174      1
   175   170   175      1
   176   175   176      1
   177   175   177      1
   178   175   178      1
   179   176   179      1
   180   176   180      1
   181   176   181      1
   182   181   182      1
   183   181   183      1
   184   181   184      1
   185   182   185      1
   186   182   186      1
   187   182   187      1
   188   187   188      1
   189   187   189      1
   190   187   190      1
   191   188   191      1
   192   188   192      1
   193   188   193      1
   194   193   194      1
   195   193   195      1
   196   193   196      1
   197   194   197      1
   198   194   198      1
   199   194   199      1
   200   199   200      1
   201   199   201      1
   202   199   202      1
   203   200   203      1
   204   200   204      1
   205   200   205      1
   206   205   206      1
   207   205   207      1
   208   205   208      1
   209   206   209      1
   210   206   210      1
   211   206   211      1
   212   211   212      1
   213   211   213      1
   214   211   214      1
   215   212   215      1
   216   212   216      1
   217   212   217      1
   218   217   218      1
   219   217   219      1
   220   217   220      1
   221   218   221      1
   222   218   222      1
   223   218   223      1
   224   223   224      1
   225   223   225      1
   226   223   226      1
   227   224   227      1
   228   224   228      1
   229   224   229      1
   230   229   230      1
   231   229   231      1
   232   229   232      1
   233   230   233      1
   234   230   234      1
   235   230   235      1
   236   235   236      1
   237   235   237      1
   238   235   238      1
   239   236   239      1
   240   236   240      1
   241   236   241      1
   242   241   242      1
   243   241   243      1
   244   241   244      1
   245   242   245      1
   246   242   246      1
   247   242   247      1
   248   247   248      1
   249   247   249      1
   250   247   250      1
   251   248   251      1
   252   248   252      1
   253   248   253      1
   254   253   254      1
   255   253   255      1
   256   253   256      1
   257   254   257      1
   258   254   258      1
   259   254   259      1
   260   259   260      1
   261   259   261      1
   262   259   262      1
   263   260   263      1
   264   260   264      1
   265   260   265      1
   266   265   266      1
   267   265   267      1
   268   265   268      1
   269   266   269      1
   270   266   270      1
   271   266   271      1
   272   271   272      1
   273   271   273      1
   274   271   274      1
   275   272   275      1
   276   272   276      1
   277   272   277      1
   278   277   278      1
   279   277   279      1
   280   277   280      1
   281   278   281      1
   282   278   282      1
   283   278   283      1
   284   283   284      1
   285   283   285      1
   286   283   286      1
   287   284   287      1
   288   284   288      1
   289   284   289      1
   290   289   290      1
   291   289   291      1
   292   289   292      1
   293   290   293      1
   294   290   294      1
   295   290   295      1
   296   295   296      1
   297   295   297      1
   298   295   298      1
   299   296   299      1
   300   296   300      1
   301   296   301      1
   302   301   302      1
   303   301   303      1
   304   301   304      1
   305   302   305      1
   306   302   306      1
   307   302   307      1
   308   307   308      1
   309   307   309      1
   310   307   310      1
   311   308   311      1
   312   308   312      1
   313   308   313      1
   314   313   314      1
   315   313   315      1
   316   313   316      1
   317   314   317      1
   318   314   318      1
   319   314   319      1
   320   319   320      1
   321   319   321      1
   322   319   322      1
   323   320   323      1
   324   320   324      1
   325   320   325      1
   326   325   326      1
   327   325   327      1
   328   325   328      1
   329   326   329      1
   330   326   330      1
   331   326   331      1
   332   331   332      1
   333   331   333      1
   334   331   334      1
   335   332   335      1
   336   332   336      1
   337   332   337      1
   338   337   338      1
   339   337   339      1
   340   337   340      1
   341   338   341      1
   342   338   342      1
   343   338   343      1
   344   343   344      1
   345   343   345      1
   346   343   346      1
   347   344   347      1
   348   344   348      1
   349   344   349      1
   350   349   350      1
   351   349   351      1
   352   349   352      1
   353   350   353      1
   354   350   354      1
   355   350   355      1
   356   355   356      1
   357   355   357      1
   358   355   358      1
   359   356   359      1
   360   356   360      1
   361   356   361      1
   362   361   362      1
   363   361   363      1
   364   361   364      1
   365   362   365      1
   366   362   366      1
   367   362   367      1
   368   367   368      1
   369   367   369      1
   370   367   370      1
   371   368   371      1
   372   368   372      1
   373   368   373      1
   374   373   374      1
   375   373   375      1
   376   373   376      1
   377   374   377      1
   378   374   378      1
   379   374   379      1
   380   379   380      1
   381   379   381      1
   382   379   382      1
   383   380   383      1
   384   380   384      1
   385   380   385      1
   386   385   386      1
   387   385   387      1
   388   385   388      1
   389   386   389      1
   390   386   390      1
   391   386   391      1
   392   391   392      1
   393   391   393      1
   394   391   394      1
   395   392   395      1
   396   392   396      1
   397   392   397      1
   398   397   398      1
   399   397   399      1
   400   397   400      1
   401   398   401      1
   402   398   402      1
   403   398   403      1
   404   403   404      1
   405   403   405      1
   406   403   406      1
   407   404   407      1
   408   404   408      1
   409   404   409      1
   410   409   410      1
   411   409   411      1
   412   409   412      1
   413   410   413      1
   414   410   414      1
   415   410   415      1
   416   415   416      1
   417   415   417      1
   418   415   418      1
   419   416   419      1
   420   416   420      1
   421   416   421      1
   422   421   422      1
   423   421   423      1
   424   421   424      1
   425   422   425      1
   426   422   426      1
   427   422   427      1
   428   427   428      1
   429   427   429      1
   430   427   430      1
   431   428   431      1
   432   428   432      1
   433   428   433      1
   434   433   434      1
   435   433   435      1
   436   433   436      1
   437   434   437      1
   438   434   438      1
   439   434   439      1
   440   439   440      1
   441   439   441      1
   442   439   442      1
   443   440   443      1
   444   440   444      1
   445   440   445      1
   446   445   446      1
   447   445   447      1
   448   445   448      1
   449   446   449      1
   450   446   450      1
   451   446   451      1
   452   451   452      1
   453   451   453      1
   454   451   454      1
   455   452   455      1
   456   452   456      1
   457   452   457      1
   458   457   458      1
   459   457   459      1
   460   457   460      1
   461   458   461      1
   462   458   462      1
   463   458   463      H
