###
### Created by PolyChef-cpp17 on Thu Feb 27 19:40:28 2025
###

@<TRIPOS>MOLECULE
NO_INFO
338 337 1 0 0
SMALL
USER_CHARGES


@<TRIPOS>ATOM
      1 C          49.2798  157.1087  120.6551 C.3       0        0    0.0000
      2 C          48.4513  155.9575  120.0742 C.3       0        0    0.0000
      3 H          48.8875  158.0703  120.3015 H         0        0    0.0000
      4 H          50.3162  157.0421  120.3014 H         0        0    0.0000
      5 H          48.4070  155.1274  120.7901 H         0        0    0.0000
      6 H          47.4176  156.2849  119.9071 H         0        0    0.0000
      7 C          49.0383  155.4269  118.7209 C.3       1        0    0.0000
      8 C          49.6365  156.5504  117.8671 C.3       1        0    0.0000
      9 H          49.8038  154.6720  118.9393 H         1        0    0.0000
     10 H          48.2415  154.9163  118.1659 H         1        0    0.0000
     11 H          48.9467  157.4026  117.8298 H         1        0    0.0000
     12 H          50.5647  156.9161  118.3235 H         1        0    0.0000
     13 C          49.9434  156.0842  116.4022 C.3       2        0    0.0000
     14 C          49.8894  157.2429  115.4005 C.3       2        0    0.0000
     15 H          50.9346  155.6144  116.3809 H         2        0    0.0000
     16 H          49.2211  155.3084  116.1194 H         2        0    0.0000
     17 H          48.9712  157.8250  115.5479 H         2        0    0.0000
     18 H          50.7282  157.9286  115.5729 H         2        0    0.0000
     19 C          49.9399  156.7464  113.9144 C.3       3        0    0.0000
     20 C          49.8310  157.9010  112.9123 C.3       3        0    0.0000
     21 H          50.8769  156.1983  113.7564 H         3        0    0.0000
     22 H          49.1248  156.0301  113.7530 H         3        0    0.0000
     23 H          48.8999  158.4568  113.0785 H         3        0    0.0000
     24 H          50.6533  158.6108  113.0655 H         3        0    0.0000
     25 C          49.8637  157.4029  111.4263 C.3       4        0    0.0000
     26 C          49.9916  158.5594  110.4287 C.3       4        0    0.0000
     27 H          50.7030  156.7069  111.3050 H         4        0    0.0000
     28 H          48.9490  156.8316  111.2246 H         4        0    0.0000
     29 H          49.1349  159.2375  110.5270 H         4        0    0.0000
     30 H          50.8885  159.1506  110.6513 H         4        0    0.0000
     31 C          50.0720  158.0584  108.9454 C.3       5        0    0.0000
     32 C          49.0866  158.7933  108.0300 C.3       5        0    0.0000
     33 H          51.0976  158.1952  108.5810 H         5        0    0.0000
     34 H          49.8717  156.9800  108.9251 H         5        0    0.0000
     35 H          48.1216  158.9157  108.5372 H         5        0    0.0000
     36 H          49.4575  159.8022  107.8109 H         5        0    0.0000
     37 C          48.8540  158.0356  106.6775 C.3       6        0    0.0000
     38 C          49.3166  158.8534  105.4666 C.3       6        0    0.0000
     39 H          49.3892  157.0786  106.7117 H         6        0    0.0000
     40 H          47.7873  157.7969  106.5848 H         6        0    0.0000
     41 H          48.5079  159.5120  105.1263 H         6        0    0.0000
     42 H          50.1541  159.5032  105.7493 H         6        0    0.0000
     43 C          49.7642  157.9436  104.2711 C.3       7        0    0.0000
     44 C          49.2847  158.4833  102.9191 C.3       7        0    0.0000
     45 H          50.8583  157.8639  104.2777 H         7        0    0.0000
     46 H          49.3736  156.9310  104.4318 H         7        0    0.0000
     47 H          48.2213  158.7472  102.9752 H         7        0    0.0000
     48 H          49.8251  159.4047  102.6689 H         7        0    0.0000
     49 C          49.4879  157.4476  101.7600 C.3       8        0    0.0000
     50 C          49.3659  158.0938  100.3756 C.3       8        0    0.0000
     51 H          50.4745  156.9810  101.8717 H         8        0    0.0000
     52 H          48.7464  156.6463  101.8678 H         8        0    0.0000
     53 H          48.3571  158.5026  100.2389 H         8        0    0.0000
     54 H          50.0618  158.9378  100.2918 H         8        0    0.0000
     55 C          49.6610  157.0787   99.2181 C.3       9        0    0.0000
     56 C          49.5012  157.7149   97.8329 C.3       9        0    0.0000
     57 H          50.6802  156.6913   99.3388 H         9        0    0.0000
     58 H          48.9841  156.2213   99.3186 H         9        0    0.0000
     59 H          48.4862  158.1150   97.7175 H         9        0    0.0000
     60 H          50.1883  158.5636   97.7272 H         9        0    0.0000
     61 C          49.7767  156.6945   96.6751 C.3      10        0    0.0000
     62 C          49.6158  157.3304   95.2899 C.3      10        0    0.0000
     63 H          50.7920  156.2950   96.7900 H        10        0    0.0000
     64 H          49.0902  155.8454   96.7813 H        10        0    0.0000
     65 H          48.6020  157.7341   95.1768 H        10        0    0.0000
     66 H          50.3057  158.1765   95.1819 H        10        0    0.0000
     67 C          49.8846  156.3082   94.1321 C.3      11        0    0.0000
     68 C          49.7220  156.9436   92.7469 C.3      11        0    0.0000
     69 H          50.8989  155.9055   94.2445 H        11        0    0.0000
     70 H          49.1956  155.4615   94.2409 H        11        0    0.0000
     71 H          48.7083  157.3480   92.6352 H        11        0    0.0000
     72 H          50.4122  157.7893   92.6376 H        11        0    0.0000
     73 C          49.9885  155.9209   91.5891 C.3      12        0    0.0000
     74 C          49.8268  156.5566   90.2040 C.3      12        0    0.0000
     75 H          51.0019  155.5161   91.7013 H        12        0    0.0000
     76 H          49.2977  155.0756   91.6981 H        12        0    0.0000
     77 H          48.8154  156.9672   90.0942 H        12        0    0.0000
     78 H          50.5221  157.3978   90.0926 H        12        0    0.0000
     79 C          50.0844  155.5316   89.0461 C.3      13        0    0.0000
     80 C          49.9285  156.1687   87.6610 C.3      13        0    0.0000
     81 H          51.0941  155.1177   89.1584 H        13        0    0.0000
     82 H          49.3861  154.6924   89.1549 H        13        0    0.0000
     83 H          48.9173  156.5786   87.5470 H        13        0    0.0000
     84 H          50.6236  157.0107   87.5538 H        13        0    0.0000
     85 C          50.1923  155.1453   86.5032 C.3      14        0    0.0000
     86 C          50.0583  155.7878   85.1182 C.3      14        0    0.0000
     87 H          51.1974  154.7233   86.6264 H        14        0    0.0000
     88 H          49.4864  154.3112   86.6008 H        14        0    0.0000
     89 H          49.0536  156.2110   84.9954 H        14        0    0.0000
     90 H          50.7651  156.6211   85.0201 H        14        0    0.0000
     91 C          50.3202  154.7640   83.9604 C.3      15        0    0.0000
     92 C          50.1978  155.4093   82.5756 C.3      15        0    0.0000
     93 H          51.3216  154.3344   84.0880 H        15        0    0.0000
     94 H          49.6077  153.9350   84.0534 H        15        0    0.0000
     95 H          49.3896  156.1511   82.5764 H        15        0    0.0000
     96 H          51.1206  155.9491   82.3292 H        15        0    0.0000
     97 C          49.9142  154.3542   81.4514 C.3      16        0    0.0000
     98 C          49.7526  155.0036   80.0726 C.3      16        0    0.0000
     99 H          50.7371  153.6289   81.4315 H        16        0    0.0000
    100 H          49.0074  153.7946   81.7123 H        16        0    0.0000
    101 H          50.7195  155.3833   79.7200 H        16        0    0.0000
    102 H          49.4220  154.2559   79.3411 H        16        0    0.0000
    103 C          48.7217  156.1845   80.0893 C.3      17        0    0.0000
    104 C          48.7590  157.0063   78.7962 C.3      17        0    0.0000
    105 H          47.7164  155.7740   80.2453 H        17        0    0.0000
    106 H          48.9361  156.8289   80.9509 H        17        0    0.0000
    107 H          49.7461  157.4687   78.6726 H        17        0    0.0000
    108 H          48.6074  156.3510   77.9295 H        17        0    0.0000
    109 C          47.6678  158.1317   78.7758 C.3      18        0    0.0000
    110 C          47.6582  158.9076   77.4541 C.3      18        0    0.0000
    111 H          46.6858  157.6752   78.9511 H        18        0    0.0000
    112 H          47.8507  158.8168   79.6129 H        18        0    0.0000
    113 H          48.6270  159.3984   77.2989 H        18        0    0.0000
    114 H          47.5168  158.2170   76.6135 H        18        0    0.0000
    115 C          46.5289  159.9940   77.4111 C.3      19        0    0.0000
    116 C          46.5531  160.8058   76.1114 C.3      19        0    0.0000
    117 H          45.5570  159.4984   77.5270 H        19        0    0.0000
    118 H          46.6472  160.6613   78.2737 H        19        0    0.0000
    119 H          47.5406  161.2626   75.9715 H        19        0    0.0000
    120 H          46.3871  160.1447   75.2517 H        19        0    0.0000
    121 C          45.4669  161.9361   76.0966 C.3      20        0    0.0000
    122 C          45.2181  162.4843   74.6871 C.3      20        0    0.0000
    123 H          44.5348  161.5362   76.5146 H        20        0    0.0000
    124 H          45.7896  162.7453   76.7634 H        20        0    0.0000
    125 H          46.0713  163.0939   74.3646 H        20        0    0.0000
    126 H          45.1336  161.6572   73.9713 H        20        0    0.0000
    127 C          43.9168  163.3549   74.6093 C.3      21        0    0.0000
    128 C          43.3168  163.3779   73.1992 C.3      21        0    0.0000
    129 H          43.1839  162.9598   75.3236 H        21        0    0.0000
    130 H          44.1544  164.3756   74.9338 H        21        0    0.0000
    131 H          42.5126  164.1222   73.1447 H        21        0    0.0000
    132 H          44.0785  163.6834   72.4712 H        21        0    0.0000
    133 C          42.7431  161.9821   72.7748 C.3      22        0    0.0000
    134 C          42.2355  161.9782   71.3286 C.3      22        0    0.0000
    135 H          43.5268  161.2247   72.9005 H        22        0    0.0000
    136 H          41.9301  161.7109   73.4596 H        22        0    0.0000
    137 H          41.3253  162.5852   71.2478 H        22        0    0.0000
    138 H          42.9804  162.4378   70.6672 H        22        0    0.0000
    139 C          41.9254  160.5310   70.8118 C.3      23        0    0.0000
    140 C          41.4059  160.5281   69.3699 C.3      23        0    0.0000
    141 H          42.8380  159.9266   70.8841 H        23        0    0.0000
    142 H          41.1873  160.0681   71.4785 H        23        0    0.0000
    143 H          40.4979  161.1394   69.2959 H        23        0    0.0000
    144 H          42.1475  160.9834   68.7019 H        23        0    0.0000
    145 C          41.0845  159.0819   68.8572 C.3      24        0    0.0000
    146 C          40.3774  159.0916   67.4974 C.3      24        0    0.0000
    147 H          42.0209  158.5143   68.7903 H        24        0    0.0000
    148 H          40.4602  158.5732   69.6022 H        24        0    0.0000
    149 H          39.4586  159.6881   67.5554 H        24        0    0.0000
    150 H          41.0164  159.5696   66.7445 H        24        0    0.0000
    151 C          40.0125  157.6479   67.0073 C.3      25        0    0.0000
    152 C          38.5662  157.5519   66.5093 C.3      25        0    0.0000
    153 H          40.7057  157.3603   66.2072 H        25        0    0.0000
    154 H          40.1738  156.9431   67.8324 H        25        0    0.0000
    155 H          37.9200  158.2120   67.1010 H        25        0    0.0000
    156 H          38.5024  157.8974   65.4700 H        25        0    0.0000
    157 C          38.0055  156.0902   66.5910 C.3      26        0    0.0000
    158 C          36.6007  156.0402   67.2018 C.3      26        0    0.0000
    159 H          37.9926  155.6595   65.5821 H        26        0    0.0000
    160 H          38.6962  155.4793   67.1855 H        26        0    0.0000
    161 H          36.1235  157.0253   67.1287 H        26        0    0.0000
    162 H          35.9700  155.3419   66.6378 H        26        0    0.0000
    163 C          36.6223  155.5996   68.7061 C.3      27        0    0.0000
    164 C          35.7689  154.3517   68.9582 C.3      27        0    0.0000
    165 H          37.6611  155.4115   69.0046 H        27        0    0.0000
    166 H          36.2629  156.4321   69.3236 H        27        0    0.0000
    167 H          34.7771  154.6424   69.3263 H        27        0    0.0000
    168 H          35.6094  153.8089   68.0182 H        27        0    0.0000
    169 C          36.4288  153.3806   69.9968 C.3      28        0    0.0000
    170 C          36.2926  151.9104   69.5854 C.3      28        0    0.0000
    171 H          37.4882  153.6445   70.1043 H        28        0    0.0000
    172 H          35.9630  153.5416   70.9770 H        28        0    0.0000
    173 H          35.3145  151.5221   69.8954 H        28        0    0.0000
    174 H          36.3356  151.8200   68.4929 H        28        0    0.0000
    175 C          37.4144  151.0120   70.2114 C.3      29        0    0.0000
    176 C          36.8901  150.1452   71.3615 C.3      29        0    0.0000
    177 H          37.8385  150.3763   69.4243 H        29        0    0.0000
    178 H          38.2270  151.6575   70.5671 H        29        0    0.0000
    179 H          35.7997  150.0465   71.2913 H        29        0    0.0000
    180 H          37.3035  149.1317   71.2874 H        29        0    0.0000
    181 C          37.2543  150.7381   72.7662 C.3      30        0    0.0000
    182 C          37.9098  149.6993   73.6829 C.3      30        0    0.0000
    183 H          37.9269  151.5933   72.6254 H        30        0    0.0000
    184 H          36.3414  151.1287   73.2326 H        30        0    0.0000
    185 H          37.1433  149.1804   74.2718 H        30        0    0.0000
    186 H          38.4170  148.9342   73.0821 H        30        0    0.0000
    187 C          38.9498  150.3438   74.6629 C.3      31        0    0.0000
    188 C          38.7449  149.8853   76.1110 C.3      31        0    0.0000
    189 H          39.9610  150.0847   74.3258 H        31        0    0.0000
    190 H          38.8664  151.4359   74.5988 H        31        0    0.0000
    191 H          37.6736  149.7917   76.3279 H        31        0    0.0000
    192 H          39.1839  148.8905   76.2562 H        31        0    0.0000
    193 C          39.3848  150.8758   77.1440 C.3      32        0    0.0000
    194 C          38.5399  151.0155   78.4150 C.3      32        0    0.0000
    195 H          40.3909  150.5200   77.3983 H        32        0    0.0000
    196 H          39.5086  151.8550   76.6650 H        32        0    0.0000
    197 H          37.4747  151.0586   78.1558 H        32        0    0.0000
    198 H          38.6731  150.1337   79.0541 H        32        0    0.0000
    199 C          38.9119  152.2968   79.2379 C.3      33        0    0.0000
    200 C          37.6747  153.0056   79.8001 C.3      33        0    0.0000
    201 H          39.5846  152.0091   80.0554 H        33        0    0.0000
    202 H          39.4760  152.9807   78.5916 H        33        0    0.0000
    203 H          36.7819  152.7078   79.2364 H        33        0    0.0000
    204 H          37.5068  152.7006   80.8404 H        33        0    0.0000
    205 C          37.8087  154.5666   79.7466 C.3      34        0    0.0000
    206 C          36.4504  155.2698   79.8438 C.3      34        0    0.0000
    207 H          38.4612  154.8938   80.5656 H        34        0    0.0000
    208 H          38.3112  154.8466   78.8124 H        34        0    0.0000
    209 H          35.7188  154.7655   79.2003 H        34        0    0.0000
    210 H          36.0657  155.2049   80.8692 H        34        0    0.0000
    211 C          36.5319  156.7795   79.4294 C.3      35        0    0.0000
    212 C          35.1573  157.4573   79.4308 C.3      35        0    0.0000
    213 H          37.2084  157.2994   80.1191 H        35        0    0.0000
    214 H          36.9844  156.8486   78.4324 H        35        0    0.0000
    215 H          34.7813  157.5432   80.4579 H        35        0    0.0000
    216 H          35.2412  158.4788   79.0397 H        35        0    0.0000
    217 C          34.1068  156.6720   78.5722 C.3      36        0    0.0000
    218 C          32.6681  156.9389   79.0279 C.3      36        0    0.0000
    219 H          34.2269  156.9566   77.5195 H        36        0    0.0000
    220 H          34.3288  155.5995   78.6359 H        36        0    0.0000
    221 H          32.6222  157.8732   79.6012 H        36        0    0.0000
    222 H          32.0158  157.0720   78.1559 H        36        0    0.0000
    223 C          32.0993  155.7755   79.9115 C.3      37        0    0.0000
    224 C          30.6712  156.0560   80.3920 C.3      37        0    0.0000
    225 H          32.1249  154.8453   79.3305 H        37        0    0.0000
    226 H          32.7636  155.6279   80.7720 H        37        0    0.0000
    227 H          30.4608  157.1313   80.3390 H        37        0    0.0000
    228 H          29.9482  155.5606   79.7321 H        37        0    0.0000
    229 C          30.4319  155.5661   81.8618 C.3      38        0    0.0000
    230 C          29.4708  156.4804   82.6296 C.3      38        0    0.0000
    231 H          30.0363  154.5433   81.8337 H        38        0    0.0000
    232 H          31.3979  155.5162   82.3795 H        38        0    0.0000
    233 H          29.6790  157.5306   82.3904 H        38        0    0.0000
    234 H          28.4370  156.2854   82.3185 H        38        0    0.0000
    235 C          29.5771  156.2849   84.1813 C.3      39        0    0.0000
    236 C          28.8697  157.4015   84.9572 C.3      39        0    0.0000
    237 H          29.1454  155.3116   84.4455 H        39        0    0.0000
    238 H          30.6371  156.2458   84.4611 H        39        0    0.0000
    239 H          29.2579  158.3795   84.6468 H        39        0    0.0000
    240 H          27.7975  157.4000   84.7249 H        39        0    0.0000
    241 C          29.0510  157.2547   86.5074 C.3      40        0    0.0000
    242 C          27.7166  157.3274   87.2577 C.3      40        0    0.0000
    243 H          29.5485  156.2995   86.7163 H        40        0    0.0000
    244 H          29.7250  158.0448   86.8609 H        40        0    0.0000
    245 H          27.3859  158.3705   87.3368 H        40        0    0.0000
    246 H          26.9401  156.7924   86.6971 H        40        0    0.0000
    247 C          27.8111  156.7167   88.6984 C.3      41        0    0.0000
    248 C          27.6134  157.7731   89.7912 C.3      41        0    0.0000
    249 H          27.0562  155.9268   88.7978 H        41        0    0.0000
    250 H          28.7893  156.2340   88.8144 H        41        0    0.0000
    251 H          27.8608  158.7683   89.4015 H        41        0    0.0000
    252 H          26.5599  157.8069   90.0955 H        41        0    0.0000
    253 C          28.4959  157.4919   91.0559 C.3      42        0    0.0000
    254 C          27.6631  157.4173   92.3404 C.3      42        0    0.0000
    255 H          29.0401  156.5513   90.9053 H        42        0    0.0000
    256 H          29.2514  158.2826   91.1428 H        42        0    0.0000
    257 H          27.3676  158.4256   92.6562 H        42        0    0.0000
    258 H          26.7360  156.8606   92.1558 H        42        0    0.0000
    259 C          28.4413  156.7281   93.5138 C.3      43        0    0.0000
    260 C          27.9633  157.2079   94.8887 C.3      43        0    0.0000
    261 H          28.3167  155.6413   93.4305 H        43        0    0.0000
    262 H          29.5127  156.9323   93.3957 H        43        0    0.0000
    263 H          27.9661  158.3043   94.9263 H        43        0    0.0000
    264 H          26.9273  156.8896   95.0590 H        43        0    0.0000
    265 C          28.8582  156.6600   96.0533 C.3      44        0    0.0000
    266 C          28.2971  157.0168   97.4342 C.3      44        0    0.0000
    267 H          28.9431  155.5710   95.9517 H        44        0    0.0000
    268 H          29.8710  157.0667   95.9423 H        44        0    0.0000
    269 H          28.2426  158.1066   97.5480 H        44        0    0.0000
    270 H          27.2722  156.6381   97.5331 H        44        0    0.0000
    271 C          29.1671  156.4301   98.5988 C.3      45        0    0.0000
    272 C          28.6188  156.8060   99.9797 C.3      45        0    0.0000
    273 H          29.2078  155.3387   98.4946 H        45        0    0.0000
    274 H          30.1959  156.7955   98.4903 H        45        0    0.0000
    275 H          28.5733  157.8974  100.0820 H        45        0    0.0000
    276 H          27.5919  156.4362  100.0902 H        45        0    0.0000
    277 C          29.4930  156.2255  101.1443 C.3      46        0    0.0000
    278 C          28.9371  156.5900  102.5252 C.3      46        0    0.0000
    279 H          29.5468  155.1351  101.0363 H        46        0    0.0000
    280 H          30.5176  156.6033  101.0395 H        46        0    0.0000
    281 H          28.8845  157.6804  102.6337 H        46        0    0.0000
    282 H          27.9121  156.2132  102.6295 H        46        0    0.0000
    283 C          29.8103  156.0080  103.6898 C.3      47        0    0.0000
    284 C          29.2561  156.3751  105.0708 C.3      47        0    0.0000
    285 H          29.8611  154.9174  103.5826 H        47        0    0.0000
    286 H          30.8359  156.3830  103.5842 H        47        0    0.0000
    287 H          29.2069  157.4657  105.1786 H        47        0    0.0000
    288 H          28.2299  156.0015  105.1757 H        47        0    0.0000
    289 C          30.1280  155.7911  106.2353 C.3      48        0    0.0000
    290 C          29.5769  156.1630  107.6163 C.3      48        0    0.0000
    291 H          30.1737  154.7000  106.1299 H        48        0    0.0000
    292 H          31.1551  156.1613  106.1280 H        48        0    0.0000
    293 H          29.5296  157.2540  107.7211 H        48        0    0.0000
    294 H          28.5504  155.7913  107.7243 H        48        0    0.0000
    295 C          30.4502  155.5810  108.7808 C.3      49        0    0.0000
    296 C          29.8965  155.9490  110.1618 C.3      49        0    0.0000
    297 H          30.5003  154.4903  108.6741 H        49        0    0.0000
    298 H          31.4759  155.9554  108.6748 H        49        0    0.0000
    299 H          29.8424  157.0397  110.2669 H        49        0    0.0000
    300 H          28.8723  155.5710  110.2694 H        49        0    0.0000
    301 C          30.7731  155.3721  111.3264 C.3      50        0    0.0000
    302 C          30.2179  155.7377  112.7073 C.3      50        0    0.0000
    303 H          30.8289  154.2816  111.2201 H        50        0    0.0000
    304 H          31.7969  155.7518  111.2199 H        50        0    0.0000
    305 H          30.1655  156.8282  112.8150 H        50        0    0.0000
    306 H          29.1929  155.3612  112.8124 H        50        0    0.0000
    307 C          31.0916  155.1564  113.8719 C.3      51        0    0.0000
    308 C          30.5365  155.5223  115.2528 C.3      51        0    0.0000
    309 H          31.1439  154.0659  113.7643 H        51        0    0.0000
    310 H          32.1167  155.5329  113.7667 H        51        0    0.0000
    311 H          30.4657  156.6125  115.3531 H        51        0    0.0000
    312 H          29.5186  155.1288  115.3654 H        51        0    0.0000
    313 C          31.4255  154.9645  116.4173 C.3      52        0    0.0000
    314 C          30.8693  155.3286  117.7983 C.3      52        0    0.0000
    315 H          31.4975  153.8745  116.3162 H        52        0    0.0000
    316 H          32.4430  155.3592  116.3056 H        52        0    0.0000
    317 H          31.4232  154.7939  118.5799 H        52        0    0.0000
    318 H          31.0091  156.3997  117.9897 H        52        0    0.0000
    319 C          29.3457  154.9857  117.9344 C.3      53        0    0.0000
    320 C          28.7247  155.5907  119.1983 C.3      53        0    0.0000
    321 H          28.8198  155.3526  117.0442 H        53        0    0.0000
    322 H          29.2280  153.8950  117.9426 H        53        0    0.0000
    323 H          28.1093  156.4602  118.9358 H        53        0    0.0000
    324 H          28.0555  154.8631  119.6740 H        53        0    0.0000
    325 C          29.8096  156.0352  120.2389 C.3      54        0    0.0000
    326 C          29.1928  156.7130  121.4674 C.3      54        0    0.0000
    327 H          30.3873  155.1545  120.5455 H        54        0    0.0000
    328 H          30.5133  156.7177  119.7464 H        54        0    0.0000
    329 H          28.4352  156.0592  121.9170 H        54        0    0.0000
    330 H          29.9618  156.8766  122.2326 H        54        0    0.0000
    331 C          28.5287  158.0888  121.1162 C.3      55        0    0.0000
    332 C          28.9141  159.1903  122.1098 C.3      55        0    0.0000
    333 H          28.8277  158.3768  120.1007 H        55        0    0.0000
    334 H          27.4392  157.9616  121.0996 H        55        0    0.0000
    335 H          28.6151  158.9024  123.1253 H        55        0    0.0000
    336 H          30.0036  159.3176  122.1263 H        55        0    0.0000
    337 H          28.4523  160.1470  121.8655 H        55        0    0.0000
    338 H          49.2798  157.1087  121.7450 H         0        0    0.0000
@<TRIPOS>BOND
     1     1     2      1
     2     1     3      1
     3     1     4      1
     4     1   338      H
     5     2     5      1
     6     2     6      1
     7     2     7      1
     8     7     8      1
     9     7     9      1
    10     7    10      1
    11     8    11      1
    12     8    12      1
    13     8    13      1
    14    13    14      1
    15    13    15      1
    16    13    16      1
    17    14    17      1
    18    14    18      1
    19    14    19      1
    20    19    20      1
    21    19    21      1
    22    19    22      1
    23    20    23      1
    24    20    24      1
    25    20    25      1
    26    25    26      1
    27    25    27      1
    28    25    28      1
    29    26    29      1
    30    26    30      1
    31    26    31      1
    32    31    32      1
    33    31    33      1
    34    31    34      1
    35    32    35      1
    36    32    36      1
    37    32    37      1
    38    37    38      1
    39    37    39      1
    40    37    40      1
    41    38    41      1
    42    38    42      1
    43    38    43      1
    44    43    44      1
    45    43    45      1
    46    43    46      1
    47    44    47      1
    48    44    48      1
    49    44    49      1
    50    49    50      1
    51    49    51      1
    52    49    52      1
    53    50    53      1
    54    50    54      1
    55    50    55      1
    56    55    56      1
    57    55    57      1
    58    55    58      1
    59    56    59      1
    60    56    60      1
    61    56    61      1
    62    61    62      1
    63    61    63      1
    64    61    64      1
    65    62    65      1
    66    62    66      1
    67    62    67      1
    68    67    68      1
    69    67    69      1
    70    67    70      1
    71    68    71      1
    72    68    72      1
    73    68    73      1
    74    73    74      1
    75    73    75      1
    76    73    76      1
    77    74    77      1
    78    74    78      1
    79    74    79      1
    80    79    80      1
    81    79    81      1
    82    79    82      1
    83    80    83      1
    84    80    84      1
    85    80    85      1
    86    85    86      1
    87    85    87      1
    88    85    88      1
    89    86    89      1
    90    86    90      1
    91    86    91      1
    92    91    92      1
    93    91    93      1
    94    91    94      1
    95    92    95      1
    96    92    96      1
    97    92    97      1
    98    97    98      1
    99    97    99      1
   100    97   100      1
   101    98   101      1
   102    98   102      1
   103    98   103      1
   104   103   104      1
   105   103   105      1
   106   103   106      1
   107   104   107      1
   108   104   108      1
   109   104   109      1
   110   109   110      1
   111   109   111      1
   112   109   112      1
   113   110   113      1
   114   110   114      1
   115   110   115      1
   116   115   116      1
   117   115   117      1
   118   115   118      1
   119   116   119      1
   120   116   120      1
   121   116   121      1
   122   121   122      1
   123   121   123      1
   124   121   124      1
   125   122   125      1
   126   122   126      1
   127   122   127      1
   128   127   128      1
   129   127   129      1
   130   127   130      1
   131   128   131      1
   132   128   132      1
   133   128   133      1
   134   133   134      1
   135   133   135      1
   136   133   136      1
   137   134   137      1
   138   134   138      1
   139   134   139      1
   140   139   140      1
   141   139   141      1
   142   139   142      1
   143   140   143      1
   144   140   144      1
   145   140   145      1
   146   145   146      1
   147   145   147      1
   148   145   148      1
   149   146   149      1
   150   146   150      1
   151   146   151      1
   152   151   152      1
   153   151   153      1
   154   151   154      1
   155   152   155      1
   156   152   156      1
   157   152   157      1
   158   157   158      1
   159   157   159      1
   160   157   160      1
   161   158   161      1
   162   158   162      1
   163   158   163      1
   164   163   164      1
   165   163   165      1
   166   163   166      1
   167   164   167      1
   168   164   168      1
   169   164   169      1
   170   169   170      1
   171   169   171      1
   172   169   172      1
   173   170   173      1
   174   170   174      1
   175   170   175      1
   176   175   176      1
   177   175   177      1
   178   175   178      1
   179   176   179      1
   180   176   180      1
   181   176   181      1
   182   181   182      1
   183   181   183      1
   184   181   184      1
   185   182   185      1
   186   182   186      1
   187   182   187      1
   188   187   188      1
   189   187   189      1
   190   187   190      1
   191   188   191      1
   192   188   192      1
   193   188   193      1
   194   193   194      1
   195   193   195      1
   196   193   196      1
   197   194   197      1
   198   194   198      1
   199   194   199      1
   200   199   200      1
   201   199   201      1
   202   199   202      1
   203   200   203      1
   204   200   204      1
   205   200   205      1
   206   205   206      1
   207   205   207      1
   208   205   208      1
   209   206   209      1
   210   206   210      1
   211   206   211      1
   212   211   212      1
   213   211   213      1
   214   211   214      1
   215   212   215      1
   216   212   216      1
   217   212   217      1
   218   217   218      1
   219   217   219      1
   220   217   220      1
   221   218   221      1
   222   218   222      1
   223   218   223      1
   224   223   224      1
   225   223   225      1
   226   223   226      1
   227   224   227      1
   228   224   228      1
   229   224   229      1
   230   229   230      1
   231   229   231      1
   232   229   232      1
   233   230   233      1
   234   230   234      1
   235   230   235      1
   236   235   236      1
   237   235   237      1
   238   235   238      1
   239   236   239      1
   240   236   240      1
   241   236   241      1
   242   241   242      1
   243   241   243      1
   244   241   244      1
   245   242   245      1
   246   242   246      1
   247   242   247      1
   248   247   248      1
   249   247   249      1
   250   247   250      1
   251   248   251      1
   252   248   252      1
   253   248   253      1
   254   253   254      1
   255   253   255      1
   256   253   256      1
   257   254   257      1
   258   254   258      1
   259   254   259      1
   260   259   260      1
   261   259   261      1
   262   259   262      1
   263   260   263      1
   264   260   264      1
   265   260   265      1
   266   265   266      1
   267   265   267      1
   268   265   268      1
   269   266   269      1
   270   266   270      1
   271   266   271      1
   272   271   272      1
   273   271   273      1
   274   271   274      1
   275   272   275      1
   276   272   276      1
   277   272   277      1
   278   277   278      1
   279   277   279      1
   280   277   280      1
   281   278   281      1
   282   278   282      1
   283   278   283      1
   284   283   284      1
   285   283   285      1
   286   283   286      1
   287   284   287      1
   288   284   288      1
   289   284   289      1
   290   289   290      1
   291   289   291      1
   292   289   292      1
   293   290   293      1
   294   290   294      1
   295   290   295      1
   296   295   296      1
   297   295   297      1
   298   295   298      1
   299   296   299      1
   300   296   300      1
   301   296   301      1
   302   301   302      1
   303   301   303      1
   304   301   304      1
   305   302   305      1
   306   302   306      1
   307   302   307      1
   308   307   308      1
   309   307   309      1
   310   307   310      1
   311   308   311      1
   312   308   312      1
   313   308   313      1
   314   313   314      1
   315   313   315      1
   316   313   316      1
   317   314   317      1
   318   314   318      1
   319   314   319      1
   320   319   320      1
   321   319   321      1
   322   319   322      1
   323   320   323      1
   324   320   324      1
   325   320   325      1
   326   325   326      1
   327   325   327      1
   328   325   328      1
   329   326   329      1
   330   326   330      1
   331   326   331      1
   332   331   332      1
   333   331   333      1
   334   331   334      1
   335   332   335      1
   336   332   336      1
   337   332   337      H
