###
### Created by PolyChef-cpp17 on Thu Feb 27 19:40:28 2025
###

@<TRIPOS>MOLECULE
NO_INFO
290 289 1 0 0
SMALL
USER_CHARGES


@<TRIPOS>ATOM
      1 C           9.2798   87.8287  -39.3449 C.3       0        0    0.0000
      2 C           7.8706   87.6682  -38.7641 C.3       0        0    0.0000
      3 H           9.9271   87.0166  -38.9913 H         0        0    0.0000
      4 H           9.7280   88.7655  -38.9913 H         0        0    0.0000
      5 H           7.3720   88.6440  -38.7116 H         0        0    0.0000
      6 H           7.2612   87.0382  -39.4239 H         0        0    0.0000
      7 C           7.8874   87.0316  -37.3316 C.3       1        0    0.0000
      8 C           9.1654   87.3748  -36.5584 C.3       1        0    0.0000
      9 H           7.0073   87.3825  -36.7784 H         1        0    0.0000
     10 H           7.7862   85.9434  -37.4271 H         1        0    0.0000
     11 H          10.0455   87.1975  -37.1889 H         1        0    0.0000
     12 H           9.1733   88.4407  -36.2990 H         1        0    0.0000
     13 C           9.3081   86.5336  -35.2433 C.3       2        0    0.0000
     14 C          10.2076   87.2200  -34.2095 C.3       2        0    0.0000
     15 H           8.3097   86.3658  -34.8208 H         2        0    0.0000
     16 H           9.7128   85.5461  -35.4974 H         2        0    0.0000
     17 H          11.2618   87.0965  -34.4870 H         2        0    0.0000
     18 H          10.0097   88.2990  -34.1961 H         2        0    0.0000
     19 C           9.9952   86.6493  -32.7650 C.3       3        0    0.0000
     20 C          10.6227   87.5428  -31.6894 C.3       3        0    0.0000
     21 H           8.9189   86.5403  -32.5826 H         3        0    0.0000
     22 H          10.4267   85.6419  -32.7158 H         3        0    0.0000
     23 H          11.7119   87.5758  -31.8161 H         3        0    0.0000
     24 H          10.2615   88.5730  -31.7984 H         3        0    0.0000
     25 C          10.2976   87.0443  -30.2391 C.3       4        0    0.0000
     26 C          10.9049   87.9514  -29.1633 C.3       4        0    0.0000
     27 H           9.2083   86.9946  -30.1181 H         4        0    0.0000
     28 H          10.6743   86.0204  -30.1244 H         4        0    0.0000
     29 H          11.9948   87.9965  -29.2807 H         4        0    0.0000
     30 H          10.5327   88.9766  -29.2816 H         4        0    0.0000
     31 C          10.5729   87.4576  -27.7130 C.3       5        0    0.0000
     32 C          11.1851   88.3614  -26.6372 C.3       5        0    0.0000
     33 H           9.4831   87.4166  -27.5943 H         5        0    0.0000
     34 H          10.9414   86.4309  -27.5961 H         5        0    0.0000
     35 H          12.2751   88.4016  -26.7554 H         5        0    0.0000
     36 H          10.8174   89.3883  -26.7548 H         5        0    0.0000
     37 C          10.8520   87.8683  -25.1869 C.3       6        0    0.0000
     38 C          11.4856   88.7573  -24.1112 C.3       6        0    0.0000
     39 H           9.7622   87.8460  -25.0626 H         6        0    0.0000
     40 H          11.2029   86.8348  -25.0755 H         6        0    0.0000
     41 H          12.5752   88.7816  -24.2371 H         6        0    0.0000
     42 H          11.1327   89.7903  -24.2212 H         6        0    0.0000
     43 C          11.1554   88.2622  -22.6610 C.3       7        0    0.0000
     44 C          11.0401   89.4205  -21.6639 C.3       7        0    0.0000
     45 H          10.2178   87.6931  -22.6866 H         7        0    0.0000
     46 H          11.9385   87.5648  -22.3386 H         7        0    0.0000
     47 H          12.0140   89.9108  -21.5427 H         7        0    0.0000
     48 H          10.3501   90.1813  -22.0493 H         7        0    0.0000
     49 C          10.5348   88.9459  -20.2579 C.3       8        0    0.0000
     50 C          11.4694   89.3865  -19.1258 C.3       8        0    0.0000
     51 H           9.5270   89.3459  -20.0908 H         8        0    0.0000
     52 H          10.4427   87.8528  -20.2657 H         8        0    0.0000
     53 H          12.5121   89.3558  -19.4653 H         8        0    0.0000
     54 H          11.2591   90.4267  -18.8477 H         8        0    0.0000
     55 C          11.3260   88.4841  -17.8520 C.3       9        0    0.0000
     56 C          11.0468   89.3041  -16.5876 C.3       9        0    0.0000
     57 H          10.5165   87.7628  -18.0189 H         9        0    0.0000
     58 H          12.2467   87.9008  -17.7264 H         9        0    0.0000
     59 H          11.9611   89.8152  -16.2612 H         9        0    0.0000
     60 H          10.3081   90.0863  -16.8020 H         9        0    0.0000
     61 C          10.5158   88.4169  -15.4093 C.3      10        0    0.0000
     62 C          10.9472   88.9519  -14.0393 C.3      10        0    0.0000
     63 H           9.4213   88.3702  -15.4672 H        10        0    0.0000
     64 H          10.8825   87.3919  -15.5453 H        10        0    0.0000
     65 H          12.0288   89.1353  -14.0307 H        10        0    0.0000
     66 H          10.4626   89.9162  -13.8425 H        10        0    0.0000
     67 C          10.5932   87.9618  -12.8766 C.3      11        0    0.0000
     68 C          10.8315   88.5800  -11.4945 C.3      11        0    0.0000
     69 H           9.5436   87.6590  -12.9773 H        11        0    0.0000
     70 H          11.1959   87.0523  -12.9908 H        11        0    0.0000
     71 H          11.8898   88.8447  -11.3782 H        11        0    0.0000
     72 H          10.2611   89.5119  -11.3959 H        11        0    0.0000
     73 C          10.4222   87.6115  -10.3319 C.3      12        0    0.0000
     74 C          10.6743   88.2240   -8.9497 C.3      12        0    0.0000
     75 H           9.3611   87.3555  -10.4420 H        12        0    0.0000
     76 H          10.9846   86.6755  -10.4368 H        12        0    0.0000
     77 H          11.7347   88.4834   -8.8410 H        12        0    0.0000
     78 H          10.1090   89.1581   -8.8434 H        12        0    0.0000
     79 C          10.2698   87.2534   -7.7870 C.3      13        0    0.0000
     80 C          10.5397   87.8584   -6.4049 C.3      13        0    0.0000
     81 H           9.2060   87.0051   -7.8877 H        13        0    0.0000
     82 H          10.8249   86.3140   -7.9013 H        13        0    0.0000
     83 H          11.6015   88.1167   -6.3082 H        13        0    0.0000
     84 H           9.9763   88.7923   -6.2866 H        13        0    0.0000
     85 C          10.1492   86.8820   -5.2424 C.3      14        0    0.0000
     86 C          10.4729   87.4637   -3.8619 C.3      14        0    0.0000
     87 H           9.0778   86.6573   -5.3142 H        14        0    0.0000
     88 H          10.6804   85.9327   -5.3845 H        14        0    0.0000
     89 H          11.5355   87.7306   -3.8058 H        14        0    0.0000
     90 H           9.9066   88.3896   -3.7016 H        14        0    0.0000
     91 C          10.1417   86.4618   -2.7025 C.3      15        0    0.0000
     92 C          10.3380   87.0899   -1.3183 C.3      15        0    0.0000
     93 H           9.1058   86.1190   -2.8165 H        15        0    0.0000
     94 H          10.7801   85.5759   -2.8076 H        15        0    0.0000
     95 H          11.4061   87.2501   -1.1260 H        15        0    0.0000
     96 H           9.8598   88.0765   -1.2816 H        15        0    0.0000
     97 C           9.7464   86.1988   -0.1723 C.3      16        0    0.0000
     98 C           9.7566   86.9137    1.1834 C.3      16        0    0.0000
     99 H           8.7213   85.9136   -0.4395 H        16        0    0.0000
    100 H          10.3263   85.2694   -0.1118 H        16        0    0.0000
    101 H          10.6748   86.6683    1.7312 H        16        0    0.0000
    102 H           9.7590   88.0007    1.0354 H        16        0    0.0000
    103 C           8.5216   86.5270    2.0682 C.3      17        0    0.0000
    104 C           8.5315   87.2423    3.4237 C.3      17        0    0.0000
    105 H           7.6034   86.7720    1.5203 H        17        0    0.0000
    106 H           8.5194   85.4400    2.2166 H        17        0    0.0000
    107 H           7.5785   87.0792    3.9421 H        17        0    0.0000
    108 H           9.3153   86.8214    4.0655 H        17        0    0.0000
    109 C           8.7707   88.7849    3.2796 C.3      18        0    0.0000
    110 C           8.8516   89.4895    4.6383 C.3      18        0    0.0000
    111 H           9.6975   88.9478    2.7156 H        18        0    0.0000
    112 H           7.9579   89.2144    2.6809 H        18        0    0.0000
    113 H           9.8217   89.2881    5.1094 H        18        0    0.0000
    114 H           8.7868   90.5763    4.5029 H        18        0    0.0000
    115 C           7.7120   89.0329    5.6131 C.3      19        0    0.0000
    116 C           7.8606   89.6480    7.0090 C.3      19        0    0.0000
    117 H           6.7434   89.3121    5.1802 H        19        0    0.0000
    118 H           7.7227   87.9380    5.6814 H        19        0    0.0000
    119 H           7.6246   88.9005    7.7766 H        19        0    0.0000
    120 H           8.9008   89.9539    7.1765 H        19        0    0.0000
    121 C           6.9290   90.8923    7.2123 C.3      20        0    0.0000
    122 C           7.0590   91.4921    8.6167 C.3      20        0    0.0000
    123 H           7.1777   91.6474    6.4563 H        20        0    0.0000
    124 H           5.8907   90.5907    7.0266 H        20        0    0.0000
    125 H           6.7424   90.7594    9.3694 H        20        0    0.0000
    126 H           8.1091   91.7282    8.8292 H        20        0    0.0000
    127 C           6.2035   92.7944    8.7880 C.3      21        0    0.0000
    128 C           6.3873   93.4326   10.1694 C.3      21        0    0.0000
    129 H           6.4847   93.5080    8.0036 H        21        0    0.0000
    130 H           5.1471   92.5475    8.6253 H        21        0    0.0000
    131 H           6.0657   92.7344   10.9521 H        21        0    0.0000
    132 H           7.4493   93.6403   10.3494 H        21        0    0.0000
    133 C           5.5788   94.7672   10.3196 C.3      22        0    0.0000
    134 C           6.4157   95.8854   10.9507 C.3      22        0    0.0000
    135 H           5.2217   95.0776    9.3298 H        22        0    0.0000
    136 H           4.6878   94.5741   10.9297 H        22        0    0.0000
    137 H           6.5000   95.7270   12.0330 H        22        0    0.0000
    138 H           7.4363   95.8641   10.5488 H        22        0    0.0000
    139 C           5.8012   97.3045   10.6942 C.3      23        0    0.0000
    140 C           5.3505   97.9855   11.9912 C.3      23        0    0.0000
    141 H           6.5469   97.9256   10.1827 H        23        0    0.0000
    142 H           4.9515   97.2031   10.0077 H        23        0    0.0000
    143 H           5.2071   97.2360   12.7793 H        23        0    0.0000
    144 H           6.1298   98.6711   12.3465 H        23        0    0.0000
    145 C           4.0164   98.7881   11.8082 C.3      24        0    0.0000
    146 C           4.2669  100.2606   11.4644 C.3      24        0    0.0000
    147 H           3.4234   98.3127   11.0172 H        24        0    0.0000
    148 H           3.4286   98.7121   12.7314 H        24        0    0.0000
    149 H           3.5794  100.9013   12.0305 H        24        0    0.0000
    150 H           5.2828  100.5487   11.7616 H        24        0    0.0000
    151 C           4.0858  100.5526    9.9349 C.3      25        0    0.0000
    152 C           3.1274  101.7203    9.6759 C.3      25        0    0.0000
    153 H           5.0685  100.7683    9.4974 H        25        0    0.0000
    154 H           3.7145   99.6450    9.4432 H        25        0    0.0000
    155 H           2.4494  101.8466   10.5290 H        25        0    0.0000
    156 H           3.6919  102.6562    9.5808 H        25        0    0.0000
    157 C           2.2732  101.5112    8.3782 C.3      26        0    0.0000
    158 C           2.0060  102.8277    7.6403 C.3      26        0    0.0000
    159 H           2.7988  100.8100    7.7181 H        26        0    0.0000
    160 H           1.3241  101.0344    8.6526 H        26        0    0.0000
    161 H           1.2756  103.4288    8.1960 H        26        0    0.0000
    162 H           2.9266  103.4219    7.5857 H        26        0    0.0000
    163 C           1.4677  102.5952    6.1865 C.3      27        0    0.0000
    164 C           1.4152  103.8926    5.3722 C.3      27        0    0.0000
    165 H           2.1107  101.8617    5.6844 H        27        0    0.0000
    166 H           0.4676  102.1483    6.2470 H        27        0    0.0000
    167 H           0.7279  104.6055    5.8444 H        27        0    0.0000
    168 H           2.4034  104.3689    5.3593 H        27        0    0.0000
    169 C           0.9529  103.6481    3.8944 C.3      28        0    0.0000
    170 C           0.9921  104.9293    3.0540 C.3      28        0    0.0000
    171 H           1.5975  102.8831    3.4441 H        28        0    0.0000
    172 H          -0.0640  103.2366    3.9055 H        28        0    0.0000
    173 H           0.3266  105.6851    3.4892 H        28        0    0.0000
    174 H           2.0029  105.3556    3.0651 H        28        0    0.0000
    175 C           0.5663  104.6774    1.5665 C.3      29        0    0.0000
    176 C           0.9052  105.8632    0.6566 C.3      29        0    0.0000
    177 H           1.0661  103.7704    1.2044 H        29        0    0.0000
    178 H          -0.5118  104.4763    1.5365 H        29        0    0.0000
    179 H           0.3446  106.7518    0.9721 H        29        0    0.0000
    180 H           1.9695  106.1139    0.7461 H        29        0    0.0000
    181 C           0.5804  105.5689   -0.8486 C.3      30        0    0.0000
    182 C           1.7217  105.9877   -1.7818 C.3      30        0    0.0000
    183 H           0.3749  104.4974   -0.9630 H        30        0    0.0000
    184 H          -0.3416  106.0973   -1.1212 H        30        0    0.0000
    185 H           1.7421  107.0798   -1.8845 H        30        0    0.0000
    186 H           2.6869  105.6938   -1.3510 H        30        0    0.0000
    187 C           1.5888  105.3485   -3.2070 C.3      31        0    0.0000
    188 C           1.4297  106.4057   -4.3052 C.3      31        0    0.0000
    189 H           2.4758  104.7333   -3.4027 H        31        0    0.0000
    190 H           0.7272  104.6694   -3.2109 H        31        0    0.0000
    191 H           0.8275  107.2448   -3.9352 H        31        0    0.0000
    192 H           2.4100  106.8169   -4.5763 H        31        0    0.0000
    193 C           0.7509  105.8261   -5.5939 C.3      32        0    0.0000
    194 C           1.5597  106.1253   -6.8610 C.3      32        0    0.0000
    195 H           0.6290  104.7427   -5.4725 H        32        0    0.0000
    196 H          -0.2576  106.2487   -5.6829 H        32        0    0.0000
    197 H           1.4526  107.1821   -7.1349 H        32        0    0.0000
    198 H           2.6273  105.9548   -6.6748 H        32        0    0.0000
    199 C           1.1110  105.2406   -8.0749 C.3      33        0    0.0000
    200 C           1.3878  105.9186   -9.4213 C.3      33        0    0.0000
    201 H           1.6348  104.2781   -8.0237 H        33        0    0.0000
    202 H           0.0404  105.0223   -7.9767 H        33        0    0.0000
    203 H           0.9661  106.9314   -9.4262 H        33        0    0.0000
    204 H           2.4689  106.0267   -9.5728 H        33        0    0.0000
    205 C           0.7866  105.1151  -10.6257 C.3      34        0    0.0000
    206 C           1.2083  105.6962  -11.9798 C.3      34        0    0.0000
    207 H           1.1082  104.0691  -10.5486 H        34        0    0.0000
    208 H          -0.3071  105.1156  -10.5403 H        34        0    0.0000
    209 H           0.8561  106.7311  -12.0712 H        34        0    0.0000
    210 H           2.3025  105.7283  -12.0510 H        34        0    0.0000
    211 C           0.6478  104.8635  -13.1840 C.3      35        0    0.0000
    212 C           1.0483  105.4590  -14.5383 C.3      35        0    0.0000
    213 H           1.0152  103.8330  -13.1028 H        35        0    0.0000
    214 H          -0.4452  104.8157  -13.1026 H        35        0    0.0000
    215 H           0.6840  106.4907  -14.6181 H        35        0    0.0000
    216 H           2.1414  105.5036  -14.6211 H        35        0    0.0000
    217 C           0.4838  104.6292  -15.7425 C.3      36        0    0.0000
    218 C           0.8844  105.2247  -17.0968 C.3      36        0    0.0000
    219 H           0.8482  103.5975  -15.6627 H        36        0    0.0000
    220 H          -0.6092  104.5845  -15.6597 H        36        0    0.0000
    221 H           0.5203  106.2565  -17.1764 H        36        0    0.0000
    222 H           1.9774  105.2689  -17.1798 H        36        0    0.0000
    223 C           0.3194  104.3951  -18.3010 C.3      37        0    0.0000
    224 C           0.7258  104.9866  -19.6552 C.3      37        0    0.0000
    225 H           0.6792  103.3621  -18.2185 H        37        0    0.0000
    226 H          -0.7740  104.3552  -18.2208 H        37        0    0.0000
    227 H           0.3655  106.0195  -19.7379 H        37        0    0.0000
    228 H           1.8192  105.0270  -19.7352 H        37        0    0.0000
    229 C           0.1614  104.1567  -20.8595 C.3      38        0    0.0000
    230 C           0.5640  104.7507  -22.2137 C.3      38        0    0.0000
    231 H           0.5243  103.1246  -20.7786 H        38        0    0.0000
    232 H          -0.9318  104.1135  -20.7777 H        38        0    0.0000
    233 H           0.2020  105.7832  -22.2942 H        38        0    0.0000
    234 H           1.6572  104.7929  -22.2959 H        38        0    0.0000
    235 C          -0.0015  103.9216  -23.4179 C.3      39        0    0.0000
    236 C           0.4049  104.5130  -24.7722 C.3      39        0    0.0000
    237 H           0.3578  102.8883  -23.3356 H        39        0    0.0000
    238 H          -1.0950  103.8822  -23.3376 H        39        0    0.0000
    239 H           0.0452  105.5462  -24.8547 H        39        0    0.0000
    240 H           1.4983  104.5528  -24.8524 H        39        0    0.0000
    241 C          -0.1602  103.6836  -25.9764 C.3      40        0    0.0000
    242 C           0.2435  104.2769  -27.3307 C.3      40        0    0.0000
    243 H           0.2015  102.6510  -25.8953 H        40        0    0.0000
    244 H          -1.2534  103.6418  -25.8949 H        40        0    0.0000
    245 H          -0.1203  105.3087  -27.4128 H        40        0    0.0000
    246 H           1.3367  104.3209  -27.4113 H        40        0    0.0000
    247 C          -0.3189  103.4456  -28.5349 C.3      41        0    0.0000
    248 C           0.0822  104.0407  -29.8891 C.3      41        0    0.0000
    249 H           0.0467  102.4144  -28.4540 H        41        0    0.0000
    250 H          -1.4119  103.3997  -28.4531 H        41        0    0.0000
    251 H          -0.2815  105.0726  -29.9692 H        41        0    0.0000
    252 H           1.1753  104.0847  -29.9718 H        41        0    0.0000
    253 C          -0.4825  103.2110  -31.0934 C.3      42        0    0.0000
    254 C          -0.0794  103.8047  -32.4476 C.3      42        0    0.0000
    255 H          -0.1201  102.1786  -31.0124 H        42        0    0.0000
    256 H          -1.5757  103.1684  -31.0117 H        42        0    0.0000
    257 H          -0.4447  104.8358  -32.5300 H        42        0    0.0000
    258 H           1.0138  103.8504  -32.5279 H        42        0    0.0000
    259 C          -0.6401  102.9722  -33.6518 C.3      43        0    0.0000
    260 C          -0.2390  103.5673  -35.0061 C.3      43        0    0.0000
    261 H          -0.2733  101.9415  -33.5704 H        43        0    0.0000
    262 H          -1.7331  102.9250  -33.5706 H        43        0    0.0000
    263 H          -0.6079  104.5972  -35.0885 H        43        0    0.0000
    264 H           0.8540  103.6168  -35.0864 H        43        0    0.0000
    265 C          -0.7968  102.7329  -36.2103 C.3      44        0    0.0000
    266 C          -0.3967  103.3287  -37.5646 C.3      44        0    0.0000
    267 H          -0.4273  101.7033  -36.1283 H        44        0    0.0000
    268 H          -1.8898  102.6828  -36.1296 H        44        0    0.0000
    269 H          -0.6599  102.6354  -38.3730 H        44        0    0.0000
    270 H          -0.9563  104.2542  -37.7485 H        44        0    0.0000
    271 C           1.1374  103.6410  -37.6463 C.3      45        0    0.0000
    272 C           1.5317  104.2686  -38.9878 C.3      45        0    0.0000
    273 H           1.4055  104.3143  -36.8227 H        45        0    0.0000
    274 H           1.6966  102.7106  -37.4874 H        45        0    0.0000
    275 H           1.9535  105.2683  -38.8258 H        45        0    0.0000
    276 H           2.3159  103.6697  -39.4673 H        45        0    0.0000
    277 C           0.3149  104.3866  -39.9690 C.3      46        0    0.0000
    278 C           0.7560  104.6602  -41.4111 C.3      46        0    0.0000
    279 H          -0.2674  103.4578  -39.9235 H        46        0    0.0000
    280 H          -0.3453  105.1897  -39.6188 H        46        0    0.0000
    281 H           0.1049  105.4166  -41.8665 H        46        0    0.0000
    282 H           1.7727  105.0720  -41.4217 H        46        0    0.0000
    283 C           0.7252  103.3674  -42.2972 C.3      47        0    0.0000
    284 C           0.1804  103.6400  -43.7036 C.3      47        0    0.0000
    285 H           1.7409  102.9576  -42.3602 H        47        0    0.0000
    286 H           0.1103  102.6097  -41.7960 H        47        0    0.0000
    287 H          -0.8353  104.0498  -43.6407 H        47        0    0.0000
    288 H           0.7953  104.3977  -44.2049 H        47        0    0.0000
    289 H           0.1590  102.7411  -44.3198 H        47        0    0.0000
    290 H           9.2798   87.8287  -40.4349 H         0        0    0.0000
@<TRIPOS>BOND
     1     1     2      1
     2     1     3      1
     3     1     4      1
     4     1   290      H
     5     2     5      1
     6     2     6      1
     7     2     7      1
     8     7     8      1
     9     7     9      1
    10     7    10      1
    11     8    11      1
    12     8    12      1
    13     8    13      1
    14    13    14      1
    15    13    15      1
    16    13    16      1
    17    14    17      1
    18    14    18      1
    19    14    19      1
    20    19    20      1
    21    19    21      1
    22    19    22      1
    23    20    23      1
    24    20    24      1
    25    20    25      1
    26    25    26      1
    27    25    27      1
    28    25    28      1
    29    26    29      1
    30    26    30      1
    31    26    31      1
    32    31    32      1
    33    31    33      1
    34    31    34      1
    35    32    35      1
    36    32    36      1
    37    32    37      1
    38    37    38      1
    39    37    39      1
    40    37    40      1
    41    38    41      1
    42    38    42      1
    43    38    43      1
    44    43    44      1
    45    43    45      1
    46    43    46      1
    47    44    47      1
    48    44    48      1
    49    44    49      1
    50    49    50      1
    51    49    51      1
    52    49    52      1
    53    50    53      1
    54    50    54      1
    55    50    55      1
    56    55    56      1
    57    55    57      1
    58    55    58      1
    59    56    59      1
    60    56    60      1
    61    56    61      1
    62    61    62      1
    63    61    63      1
    64    61    64      1
    65    62    65      1
    66    62    66      1
    67    62    67      1
    68    67    68      1
    69    67    69      1
    70    67    70      1
    71    68    71      1
    72    68    72      1
    73    68    73      1
    74    73    74      1
    75    73    75      1
    76    73    76      1
    77    74    77      1
    78    74    78      1
    79    74    79      1
    80    79    80      1
    81    79    81      1
    82    79    82      1
    83    80    83      1
    84    80    84      1
    85    80    85      1
    86    85    86      1
    87    85    87      1
    88    85    88      1
    89    86    89      1
    90    86    90      1
    91    86    91      1
    92    91    92      1
    93    91    93      1
    94    91    94      1
    95    92    95      1
    96    92    96      1
    97    92    97      1
    98    97    98      1
    99    97    99      1
   100    97   100      1
   101    98   101      1
   102    98   102      1
   103    98   103      1
   104   103   104      1
   105   103   105      1
   106   103   106      1
   107   104   107      1
   108   104   108      1
   109   104   109      1
   110   109   110      1
   111   109   111      1
   112   109   112      1
   113   110   113      1
   114   110   114      1
   115   110   115      1
   116   115   116      1
   117   115   117      1
   118   115   118      1
   119   116   119      1
   120   116   120      1
   121   116   121      1
   122   121   122      1
   123   121   123      1
   124   121   124      1
   125   122   125      1
   126   122   126      1
   127   122   127      1
   128   127   128      1
   129   127   129      1
   130   127   130      1
   131   128   131      1
   132   128   132      1
   133   128   133      1
   134   133   134      1
   135   133   135      1
   136   133   136      1
   137   134   137      1
   138   134   138      1
   139   134   139      1
   140   139   140      1
   141   139   141      1
   142   139   142      1
   143   140   143      1
   144   140   144      1
   145   140   145      1
   146   145   146      1
   147   145   147      1
   148   145   148      1
   149   146   149      1
   150   146   150      1
   151   146   151      1
   152   151   152      1
   153   151   153      1
   154   151   154      1
   155   152   155      1
   156   152   156      1
   157   152   157      1
   158   157   158      1
   159   157   159      1
   160   157   160      1
   161   158   161      1
   162   158   162      1
   163   158   163      1
   164   163   164      1
   165   163   165      1
   166   163   166      1
   167   164   167      1
   168   164   168      1
   169   164   169      1
   170   169   170      1
   171   169   171      1
   172   169   172      1
   173   170   173      1
   174   170   174      1
   175   170   175      1
   176   175   176      1
   177   175   177      1
   178   175   178      1
   179   176   179      1
   180   176   180      1
   181   176   181      1
   182   181   182      1
   183   181   183      1
   184   181   184      1
   185   182   185      1
   186   182   186      1
   187   182   187      1
   188   187   188      1
   189   187   189      1
   190   187   190      1
   191   188   191      1
   192   188   192      1
   193   188   193      1
   194   193   194      1
   195   193   195      1
   196   193   196      1
   197   194   197      1
   198   194   198      1
   199   194   199      1
   200   199   200      1
   201   199   201      1
   202   199   202      1
   203   200   203      1
   204   200   204      1
   205   200   205      1
   206   205   206      1
   207   205   207      1
   208   205   208      1
   209   206   209      1
   210   206   210      1
   211   206   211      1
   212   211   212      1
   213   211   213      1
   214   211   214      1
   215   212   215      1
   216   212   216      1
   217   212   217      1
   218   217   218      1
   219   217   219      1
   220   217   220      1
   221   218   221      1
   222   218   222      1
   223   218   223      1
   224   223   224      1
   225   223   225      1
   226   223   226      1
   227   224   227      1
   228   224   228      1
   229   224   229      1
   230   229   230      1
   231   229   231      1
   232   229   232      1
   233   230   233      1
   234   230   234      1
   235   230   235      1
   236   235   236      1
   237   235   237      1
   238   235   238      1
   239   236   239      1
   240   236   240      1
   241   236   241      1
   242   241   242      1
   243   241   243      1
   244   241   244      1
   245   242   245      1
   246   242   246      1
   247   242   247      1
   248   247   248      1
   249   247   249      1
   250   247   250      1
   251   248   251      1
   252   248   252      1
   253   248   253      1
   254   253   254      1
   255   253   255      1
   256   253   256      1
   257   254   257      1
   258   254   258      1
   259   254   259      1
   260   259   260      1
   261   259   261      1
   262   259   262      1
   263   260   263      1
   264   260   264      1
   265   260   265      1
   266   265   266      1
   267   265   267      1
   268   265   268      1
   269   266   269      1
   270   266   270      1
   271   266   271      1
   272   271   272      1
   273   271   273      1
   274   271   274      1
   275   272   275      1
   276   272   276      1
   277   272   277      1
   278   277   278      1
   279   277   279      1
   280   277   280      1
   281   278   281      1
   282   278   282      1
   283   278   283      1
   284   283   284      1
   285   283   285      1
   286   283   286      1
   287   284   287      1
   288   284   288      1
   289   284   289      H
