###
### Created by PolyChef-cpp17 on Thu Feb 27 19:40:30 2025
###

@<TRIPOS>MOLECULE
NO_INFO
152 151 1 0 0
SMALL
USER_CHARGES


@<TRIPOS>ATOM
      1 C          79.2798   70.5087  -39.3449 C.3       0        0    0.0000
      2 C          77.8706   70.3482  -38.7641 C.3       0        0    0.0000
      3 H          79.9271   69.6966  -38.9913 H         0        0    0.0000
      4 H          79.7280   71.4455  -38.9913 H         0        0    0.0000
      5 H          77.3720   71.3240  -38.7116 H         0        0    0.0000
      6 H          77.2612   69.7182  -39.4239 H         0        0    0.0000
      7 C          77.8874   69.7116  -37.3316 C.3       1        0    0.0000
      8 C          79.1654   70.0549  -36.5584 C.3       1        0    0.0000
      9 H          77.0073   70.0625  -36.7784 H         1        0    0.0000
     10 H          77.7863   68.6234  -37.4271 H         1        0    0.0000
     11 H          80.0455   69.8784  -37.1891 H         1        0    0.0000
     12 H          79.1729   71.1206  -36.2983 H         1        0    0.0000
     13 C          79.3087   69.2129  -35.2439 C.3       2        0    0.0000
     14 C          80.2060   69.9002  -34.2088 C.3       2        0    0.0000
     15 H          78.3103   69.0427  -34.8223 H         2        0    0.0000
     16 H          79.7155   68.2263  -35.4985 H         2        0    0.0000
     17 H          81.2607   69.7785  -34.4853 H         2        0    0.0000
     18 H          80.0064   70.9788  -34.1950 H         2        0    0.0000
     19 C          79.9930   69.3284  -32.7648 C.3       3        0    0.0000
     20 C          80.6202   70.2210  -31.6882 C.3       3        0    0.0000
     21 H          78.9166   69.2194  -32.5828 H         3        0    0.0000
     22 H          80.4243   68.3208  -32.7162 H         3        0    0.0000
     23 H          81.7093   70.2557  -31.8160 H         3        0    0.0000
     24 H          80.2575   71.2508  -31.7952 H         3        0    0.0000
     25 C          80.2973   69.7195  -30.2385 C.3       4        0    0.0000
     26 C          80.8950   70.6319  -29.1617 C.3       4        0    0.0000
     27 H          79.2084   69.6601  -30.1192 H         4        0    0.0000
     28 H          80.6830   68.6990  -30.1233 H         4        0    0.0000
     29 H          81.9846   70.6857  -29.2767 H         4        0    0.0000
     30 H          80.5146   71.6539  -29.2812 H         4        0    0.0000
     31 C          80.5638   70.1358  -27.7120 C.3       5        0    0.0000
     32 C          81.1701   71.0424  -26.6352 C.3       5        0    0.0000
     33 H          79.4741   70.0891  -27.5945 H         5        0    0.0000
     34 H          80.9375   69.1110  -27.5949 H         5        0    0.0000
     35 H          82.2597   71.0899  -26.7533 H         5        0    0.0000
     36 H          80.7957   72.0670  -26.7516 H         5        0    0.0000
     37 C          80.8401   70.5456  -25.1854 C.3       6        0    0.0000
     38 C          81.4568   71.4452  -24.1087 C.3       6        0    0.0000
     39 H          79.7504   70.5068  -25.0644 H         6        0    0.0000
     40 H          81.2065   69.5177  -25.0720 H         6        0    0.0000
     41 H          82.5463   71.4852  -24.2307 H         6        0    0.0000
     42 H          81.0893   72.4727  -24.2212 H         6        0    0.0000
     43 C          81.1286   70.9471  -22.6590 C.3       7        0    0.0000
     44 C          81.0552   72.0998  -21.6515 C.3       7        0    0.0000
     45 H          80.1758   70.4037  -22.6790 H         7        0    0.0000
     46 H          81.8959   70.2262  -22.3505 H         7        0    0.0000
     47 H          82.0405   72.5706  -21.5461 H         7        0    0.0000
     48 H          80.3724   72.8765  -22.0176 H         7        0    0.0000
     49 C          80.5688   71.6243  -20.2391 C.3       8        0    0.0000
     50 C          81.5269   72.0500  -19.1211 C.3       8        0    0.0000
     51 H          79.5682   72.0340  -20.0533 H         8        0    0.0000
     52 H          80.4650   70.5322  -20.2501 H         8        0    0.0000
     53 H          82.5641   71.9982  -19.4747 H         8        0    0.0000
     54 H          81.3404   73.0948  -18.8435 H         8        0    0.0000
     55 C          81.3835   71.1541  -17.8427 C.3       9        0    0.0000
     56 C          81.0995   71.9802  -16.5834 C.3       9        0    0.0000
     57 H          80.5763   70.4296  -18.0073 H         9        0    0.0000
     58 H          82.3056   70.5741  -17.7122 H         9        0    0.0000
     59 H          82.0159   72.4810  -16.2474 H         9        0    0.0000
     60 H          80.3727   72.7707  -16.8081 H         9        0    0.0000
     61 C          80.5442   71.1020  -15.4095 C.3      10        0    0.0000
     62 C          80.9897   71.6182  -14.0369 C.3      10        0    0.0000
     63 H          79.4488   71.0856  -15.4678 H        10        0    0.0000
     64 H          80.8827   70.0681  -15.5506 H        10        0    0.0000
     65 H          82.0750   71.7785  -14.0294 H        10        0    0.0000
     66 H          80.5261   72.5912  -13.8323 H        10        0    0.0000
     67 C          80.6172   70.6279  -12.8802 C.3      11        0    0.0000
     68 C          80.8652   71.2337  -11.4944 C.3      11        0    0.0000
     69 H          79.5625   70.3442  -12.9835 H        11        0    0.0000
     70 H          81.2038   69.7085  -12.9993 H        11        0    0.0000
     71 H          81.9283   71.4768  -11.3749 H        11        0    0.0000
     72 H          80.3131   72.1761  -11.3916 H        11        0    0.0000
     73 C          80.4347   70.2671  -10.3378 C.3      12        0    0.0000
     74 C          80.6965   70.8670   -8.9519 C.3      12        0    0.0000
     75 H          79.3690   70.0327  -10.4510 H        12        0    0.0000
     76 H          80.9788   69.3208  -10.4469 H        12        0    0.0000
     77 H          81.7617   71.1042   -8.8397 H        12        0    0.0000
     78 H          80.1500   71.8118   -8.8416 H        12        0    0.0000
     79 C          80.2701   69.8986   -7.7952 C.3      13        0    0.0000
     80 C          80.5352   70.4970   -6.4093 C.3      13        0    0.0000
     81 H          79.2042   69.6635   -7.9057 H        13        0    0.0000
     82 H          80.8146   68.9528   -7.9070 H        13        0    0.0000
     83 H          81.6010   70.7322   -6.2987 H        13        0    0.0000
     84 H          79.9906   71.4427   -6.2974 H        13        0    0.0000
     85 C          80.1088   69.5286   -5.2526 C.3      14        0    0.0000
     86 C          80.3742   70.1268   -3.8667 C.3      14        0    0.0000
     87 H          79.0430   69.2935   -5.3631 H        14        0    0.0000
     88 H          80.6533   68.5828   -5.3645 H        14        0    0.0000
     89 H          81.4412   70.3550   -3.7535 H        14        0    0.0000
     90 H          79.8356   71.0764   -3.7575 H        14        0    0.0000
     91 C          79.9382   69.1627   -2.7100 C.3      15        0    0.0000
     92 C          80.2142   69.7561   -1.3241 C.3      15        0    0.0000
     93 H          78.8692   68.9413   -2.8183 H        15        0    0.0000
     94 H          80.4703   68.2102   -2.8242 H        15        0    0.0000
     95 H          81.2773   70.0096   -1.2284 H        15        0    0.0000
     96 H          79.6548   70.6912   -1.1971 H        15        0    0.0000
     97 C          79.8232   68.7723   -0.1680 C.3      16        0    0.0000
     98 C          80.6506   69.0085    1.1004 C.3      16        0    0.0000
     99 H          78.7551   68.8919    0.0520 H        16        0    0.0000
    100 H          79.9591   67.7420   -0.5194 H        16        0    0.0000
    101 H          81.7057   69.1567    0.8390 H        16        0    0.0000
    102 H          80.3181   69.9263    1.6009 H        16        0    0.0000
    103 C          80.5432   67.8146    2.1106 C.3      17        0    0.0000
    104 C          81.4935   67.9749    3.3023 C.3      17        0    0.0000
    105 H          79.5069   67.7418    2.4631 H        17        0    0.0000
    106 H          80.7614   66.8804    1.5785 H        17        0    0.0000
    107 H          82.5260   68.0845    2.9480 H        17        0    0.0000
    108 H          81.2516   68.8906    3.8560 H        17        0    0.0000
    109 C          81.4236   66.7563    4.2861 C.3      18        0    0.0000
    110 C          82.3428   66.9357    5.4993 C.3      18        0    0.0000
    111 H          80.3854   66.6277    4.6165 H        18        0    0.0000
    112 H          81.6955   65.8447    3.7397 H        18        0    0.0000
    113 H          83.3822   67.0556    5.1693 H        18        0    0.0000
    114 H          82.0765   67.8519    6.0408 H        18        0    0.0000
    115 C          82.2637   65.7227    6.4891 C.3      19        0    0.0000
    116 C          83.6508   65.2056    6.8862 C.3      19        0    0.0000
    117 H          81.7073   66.0313    7.3829 H        19        0    0.0000
    118 H          81.6833   64.9195    6.0185 H        19        0    0.0000
    119 H          84.2992   65.1517    6.0029 H        19        0    0.0000
    120 H          84.1272   65.9048    7.5845 H        19        0    0.0000
    121 C          83.5879   63.7887    7.5540 C.3      20        0    0.0000
    122 C          84.1285   63.7980    8.9881 C.3      20        0    0.0000
    123 H          82.5477   63.4401    7.5463 H        20        0    0.0000
    124 H          84.1612   63.0828    6.9404 H        20        0    0.0000
    125 H          85.2050   63.5865    8.9856 H        20        0    0.0000
    126 H          84.0042   64.7941    9.4305 H        20        0    0.0000
    127 C          83.4091   62.7462    9.9010 C.3      21        0    0.0000
    128 C          84.3990   61.7955   10.5832 C.3      21        0    0.0000
    129 H          82.8180   63.2789   10.6562 H        21        0    0.0000
    130 H          82.6988   62.1750    9.2904 H        21        0    0.0000
    131 H          85.1937   61.5131    9.8816 H        21        0    0.0000
    132 H          84.8873   62.3016   11.4252 H        21        0    0.0000
    133 C          83.7043   60.4929   11.1107 C.3      22        0    0.0000
    134 C          83.7593   60.3832   12.6384 C.3      22        0    0.0000
    135 H          82.6614   60.4857   10.7703 H        22        0    0.0000
    136 H          84.1910   59.6226   10.6533 H        22        0    0.0000
    137 H          84.6791   59.8704   12.9459 H        22        0    0.0000
    138 H          83.7918   61.3841   13.0865 H        22        0    0.0000
    139 C          82.5288   59.6076   13.2230 C.3      23        0    0.0000
    140 C          82.8887   58.1777   13.6412 C.3      23        0    0.0000
    141 H          82.1366   60.1638   14.0836 H        23        0    0.0000
    142 H          81.7316   59.5898   12.4696 H        23        0    0.0000
    143 H          83.9446   58.1260   13.9342 H        23        0    0.0000
    144 H          82.3029   57.8844   14.5211 H        23        0    0.0000
    145 C          82.6313   57.1407   12.4942 C.3      24        0    0.0000
    146 C          83.8491   56.2470   12.2350 C.3      24        0    0.0000
    147 H          81.7633   56.5254   12.7619 H        24        0    0.0000
    148 H          82.3621   57.6841   11.5800 H        24        0    0.0000
    149 H          84.7170   56.8622   11.9672 H        24        0    0.0000
    150 H          84.1182   55.7035   13.1492 H        24        0    0.0000
    151 H          83.6701   55.5259   11.4374 H        24        0    0.0000
    152 H          79.2798   70.5087  -40.4349 H         0        0    0.0000
@<TRIPOS>BOND
     1     1     2      1
     2     1     3      1
     3     1     4      1
     4     1   152      H
     5     2     5      1
     6     2     6      1
     7     2     7      1
     8     7     8      1
     9     7     9      1
    10     7    10      1
    11     8    11      1
    12     8    12      1
    13     8    13      1
    14    13    14      1
    15    13    15      1
    16    13    16      1
    17    14    17      1
    18    14    18      1
    19    14    19      1
    20    19    20      1
    21    19    21      1
    22    19    22      1
    23    20    23      1
    24    20    24      1
    25    20    25      1
    26    25    26      1
    27    25    27      1
    28    25    28      1
    29    26    29      1
    30    26    30      1
    31    26    31      1
    32    31    32      1
    33    31    33      1
    34    31    34      1
    35    32    35      1
    36    32    36      1
    37    32    37      1
    38    37    38      1
    39    37    39      1
    40    37    40      1
    41    38    41      1
    42    38    42      1
    43    38    43      1
    44    43    44      1
    45    43    45      1
    46    43    46      1
    47    44    47      1
    48    44    48      1
    49    44    49      1
    50    49    50      1
    51    49    51      1
    52    49    52      1
    53    50    53      1
    54    50    54      1
    55    50    55      1
    56    55    56      1
    57    55    57      1
    58    55    58      1
    59    56    59      1
    60    56    60      1
    61    56    61      1
    62    61    62      1
    63    61    63      1
    64    61    64      1
    65    62    65      1
    66    62    66      1
    67    62    67      1
    68    67    68      1
    69    67    69      1
    70    67    70      1
    71    68    71      1
    72    68    72      1
    73    68    73      1
    74    73    74      1
    75    73    75      1
    76    73    76      1
    77    74    77      1
    78    74    78      1
    79    74    79      1
    80    79    80      1
    81    79    81      1
    82    79    82      1
    83    80    83      1
    84    80    84      1
    85    80    85      1
    86    85    86      1
    87    85    87      1
    88    85    88      1
    89    86    89      1
    90    86    90      1
    91    86    91      1
    92    91    92      1
    93    91    93      1
    94    91    94      1
    95    92    95      1
    96    92    96      1
    97    92    97      1
    98    97    98      1
    99    97    99      1
   100    97   100      1
   101    98   101      1
   102    98   102      1
   103    98   103      1
   104   103   104      1
   105   103   105      1
   106   103   106      1
   107   104   107      1
   108   104   108      1
   109   104   109      1
   110   109   110      1
   111   109   111      1
   112   109   112      1
   113   110   113      1
   114   110   114      1
   115   110   115      1
   116   115   116      1
   117   115   117      1
   118   115   118      1
   119   116   119      1
   120   116   120      1
   121   116   121      1
   122   121   122      1
   123   121   123      1
   124   121   124      1
   125   122   125      1
   126   122   126      1
   127   122   127      1
   128   127   128      1
   129   127   129      1
   130   127   130      1
   131   128   131      1
   132   128   132      1
   133   128   133      1
   134   133   134      1
   135   133   135      1
   136   133   136      1
   137   134   137      1
   138   134   138      1
   139   134   139      1
   140   139   140      1
   141   139   141      1
   142   139   142      1
   143   140   143      1
   144   140   144      1
   145   140   145      1
   146   145   146      1
   147   145   147      1
   148   145   148      1
   149   146   149      1
   150   146   150      1
   151   146   151      H
