###
### Created by PolyChef-cpp17 on Thu Feb 27 19:40:29 2025
###

@<TRIPOS>MOLECULE
NO_INFO
1484 1483 1 0 0
SMALL
USER_CHARGES


@<TRIPOS>ATOM
      1 C         179.2798   35.8687  120.6551 C.3       0        0    0.0000
      2 C         178.4513   34.7175  120.0742 C.3       0        0    0.0000
      3 H         178.8875   36.8302  120.3015 H         0        0    0.0000
      4 H         180.3162   35.8021  120.3014 H         0        0    0.0000
      5 H         178.4069   33.8874  120.7901 H         0        0    0.0000
      6 H         177.4177   35.0449  119.9070 H         0        0    0.0000
      7 C         179.0384   34.1868  118.7210 C.3       1        0    0.0000
      8 C         179.6353   35.3103  117.8665 C.3       1        0    0.0000
      9 H         179.8047   33.4327  118.9396 H         1        0    0.0000
     10 H         178.2420   33.6750  118.1665 H         1        0    0.0000
     11 H         178.9438   36.1611  117.8273 H         1        0    0.0000
     12 H         180.5622   35.6785  118.3234 H         1        0    0.0000
     13 C         179.9447   34.8429  116.4025 C.3       2        0    0.0000
     14 C         179.8874   36.0000  115.3990 C.3       2        0    0.0000
     15 H         180.9375   34.3765  116.3825 H         2        0    0.0000
     16 H         179.2251   34.0643  116.1204 H         2        0    0.0000
     17 H         178.9674   36.5795  115.5452 H         2        0    0.0000
     18 H         180.7241   36.6885  115.5705 H         2        0    0.0000
     19 C         179.9397   35.5013  113.9137 C.3       3        0    0.0000
     20 C         179.8254   36.6537  112.9097 C.3       3        0    0.0000
     21 H         180.8791   34.9570  113.7563 H         3        0    0.0000
     22 H         179.1277   34.7812  113.7536 H         3        0    0.0000
     23 H         178.8905   37.2038  113.0732 H         3        0    0.0000
     24 H         180.6428   37.3691  113.0636 H         3        0    0.0000
     25 C         179.8644   36.1538  111.4244 C.3       4        0    0.0000
     26 C         179.8104   37.3107  110.4206 C.3       4        0    0.0000
     27 H         180.7786   35.5666  111.2729 H         4        0    0.0000
     28 H         179.0210   35.4721  111.2585 H         4        0    0.0000
     29 H         178.8910   37.8915  110.5650 H         4        0    0.0000
     30 H         180.6478   37.9981  110.5934 H         4        0    0.0000
     31 C         179.8647   36.8116  108.9355 C.3       5        0    0.0000
     32 C         178.7692   37.4438  108.0699 C.3       5        0    0.0000
     33 H         180.8532   37.0441  108.5203 H         5        0    0.0000
     34 H         179.7680   35.7189  108.9259 H         5        0    0.0000
     35 H         177.8172   37.4524  108.6150 H         5        0    0.0000
     36 H         179.0177   38.4902  107.8535 H         5        0    0.0000
     37 C         178.5688   36.6814  106.7149 C.3       6        0    0.0000
     38 C         178.8514   37.5720  105.5000 C.3       6        0    0.0000
     39 H         179.2291   35.8055  106.7009 H         6        0    0.0000
     40 H         177.5405   36.3015  106.6717 H         6        0    0.0000
     41 H         177.9316   38.0793  105.1833 H         6        0    0.0000
     42 H         179.5682   38.3580  105.7683 H         6        0    0.0000
     43 C         179.4232   36.7592  104.2876 C.3       7        0    0.0000
     44 C         178.7832   37.1724  102.9577 C.3       7        0    0.0000
     45 H         180.5095   36.9063  104.2441 H         7        0    0.0000
     46 H         179.2571   35.6901  104.4689 H         7        0    0.0000
     47 H         177.6922   37.2185  103.0635 H         7        0    0.0000
     48 H         179.1154   38.1797  102.6773 H         7        0    0.0000
     49 C         179.1368   36.1820  101.7952 C.3       8        0    0.0000
     50 C         178.9552   36.8196  100.4133 C.3       8        0    0.0000
     51 H         180.1732   35.8449  101.9207 H         8        0    0.0000
     52 H         178.5028   35.2911  101.8846 H         8        0    0.0000
     53 H         177.9000   37.0720  100.2512 H         8        0    0.0000
     54 H         179.5165   37.7606  100.3566 H         8        0    0.0000
     55 C         179.4326   35.8760   99.2562 C.3       9        0    0.0000
     56 C         179.1480   36.4661   97.8706 C.3       9        0    0.0000
     57 H         180.5075   35.6900   99.3723 H         9        0    0.0000
     58 H         178.9317   34.9056   99.3618 H         9        0    0.0000
     59 H         178.0761   36.6738   97.7631 H         9        0    0.0000
     60 H         179.6677   37.4255   97.7564 H         9        0    0.0000
     61 C         179.5956   35.5080   96.7134 C.3      10        0    0.0000
     62 C         179.3147   36.0999   95.3278 C.3      10        0    0.0000
     63 H         180.6668   35.2980   96.8226 H        10        0    0.0000
     64 H         179.0736   34.5497   96.8259 H        10        0    0.0000
     65 H         178.2432   36.3082   95.2179 H        10        0    0.0000
     66 H         179.8351   37.0591   95.2160 H        10        0    0.0000
     67 C         179.7646   35.1429   94.1706 C.3      11        0    0.0000
     68 C         179.4845   35.7352   92.7850 C.3      11        0    0.0000
     69 H         180.8360   34.9342   94.2808 H        11        0    0.0000
     70 H         179.2437   34.1839   94.2821 H        11        0    0.0000
     71 H         178.4134   35.9459   92.6756 H        11        0    0.0000
     72 H         180.0071   36.6932   92.6727 H        11        0    0.0000
     73 C         179.9317   34.7769   91.6278 C.3      12        0    0.0000
     74 C         179.6594   35.3729   90.2423 C.3      12        0    0.0000
     75 H         181.0013   34.5611   91.7409 H        12        0    0.0000
     76 H         179.4043   33.8211   91.7365 H        12        0    0.0000
     77 H         178.5900   35.5898   90.1296 H        12        0    0.0000
     78 H         180.1879   36.3281   90.1332 H        12        0    0.0000
     79 C         180.1051   34.4139   89.0850 C.3      13        0    0.0000
     80 C         179.8302   35.0086   87.6995 C.3      13        0    0.0000
     81 H         181.1750   34.1986   89.1965 H        13        0    0.0000
     82 H         179.5782   33.4579   89.1954 H        13        0    0.0000
     83 H         178.7599   35.2217   87.5872 H        13        0    0.0000
     84 H         180.3552   35.9656   87.5900 H        13        0    0.0000
     85 C         180.2787   34.0509   86.5423 C.3      14        0    0.0000
     86 C         180.0035   34.6454   85.1567 C.3      14        0    0.0000
     87 H         181.3491   33.8380   86.6544 H        14        0    0.0000
     88 H         179.7540   33.0938   86.6519 H        14        0    0.0000
     89 H         178.9329   34.8570   85.0441 H        14        0    0.0000
     90 H         180.5270   35.6033   85.0476 H        14        0    0.0000
     91 C         180.4539   33.6887   83.9995 C.3      15        0    0.0000
     92 C         180.1820   34.2847   82.6139 C.3      15        0    0.0000
     93 H         181.5239   33.4750   84.1137 H        15        0    0.0000
     94 H         179.9284   32.7317   84.1071 H        15        0    0.0000
     95 H         179.1099   34.4843   82.4941 H        15        0    0.0000
     96 H         180.6953   35.2489   82.5119 H        15        0    0.0000
     97 C         180.6519   33.3372   81.4569 C.3      16        0    0.0000
     98 C         180.3832   33.9348   80.0714 C.3      16        0    0.0000
     99 H         181.7234   33.1355   81.5782 H        16        0    0.0000
    100 H         180.1367   32.3739   81.5574 H        16        0    0.0000
    101 H         181.3230   34.0281   79.5132 H        16        0    0.0000
    102 H         179.7375   33.2639   79.4911 H        16        0    0.0000
    103 C         179.7025   35.3445   80.1542 C.3      17        0    0.0000
    104 C         179.4925   35.9703   78.7710 C.3      17        0    0.0000
    105 H         178.7402   35.2427   80.6711 H        17        0    0.0000
    106 H         180.3250   36.0018   80.7739 H        17        0    0.0000
    107 H         180.4547   36.0715   78.2539 H        17        0    0.0000
    108 H         178.8695   35.3133   78.1516 H        17        0    0.0000
    109 C         178.8128   37.3805   78.8539 C.3      18        0    0.0000
    110 C         177.9853   37.7008   77.6042 C.3      18        0    0.0000
    111 H         178.1751   37.4137   79.7460 H        18        0    0.0000
    112 H         179.5912   38.1405   78.9946 H        18        0    0.0000
    113 H         178.6490   37.9569   76.7691 H        18        0    0.0000
    114 H         177.4151   36.8164   77.2938 H        18        0    0.0000
    115 C         176.9886   38.8876   77.8398 C.3      19        0    0.0000
    116 C         175.7254   38.7645   76.9805 C.3      19        0    0.0000
    117 H         176.7189   38.9173   78.9028 H        19        0    0.0000
    118 H         177.5033   39.8308   77.6189 H        19        0    0.0000
    119 H         175.9270   39.1198   75.9623 H        19        0    0.0000
    120 H         175.4305   37.7114   76.8940 H        19        0    0.0000
    121 C         174.5233   39.5790   77.5712 C.3      20        0    0.0000
    122 C         173.2079   39.2844   76.8419 C.3      20        0    0.0000
    123 H         174.4241   39.3400   78.6373 H        20        0    0.0000
    124 H         174.7566   40.6492   77.5086 H        20        0    0.0000
    125 H         172.5252   40.1378   76.9380 H        20        0    0.0000
    126 H         173.3945   39.1495   75.7693 H        20        0    0.0000
    127 C         172.4955   38.0026   77.3960 C.3      21        0    0.0000
    128 C         171.1634   37.7274   76.6899 C.3      21        0    0.0000
    129 H         173.1687   37.1446   77.2769 H        21        0    0.0000
    130 H         172.3314   38.1272   78.4735 H        21        0    0.0000
    131 H         171.3450   37.3930   75.6609 H        21        0    0.0000
    132 H         170.6305   36.9130   77.1963 H        21        0    0.0000
    133 C         170.2374   38.9918   76.6543 C.3      22        0    0.0000
    134 C         169.0397   38.8084   75.7158 C.3      22        0    0.0000
    135 H         169.8884   39.2033   77.6726 H        22        0    0.0000
    136 H         170.8331   39.8575   76.3392 H        22        0    0.0000
    137 H         168.3919   38.0038   76.0854 H        22        0    0.0000
    138 H         168.4308   39.7208   75.7001 H        22        0    0.0000
    139 C         169.4799   38.4695   74.2499 C.3      23        0    0.0000
    140 C         168.2855   38.3569   73.2960 C.3      23        0    0.0000
    141 H         170.1695   39.2473   73.8990 H        23        0    0.0000
    142 H         170.0443   37.5288   74.2587 H        23        0    0.0000
    143 H         168.6382   38.2369   72.2642 H        23        0    0.0000
    144 H         167.6971   37.4621   73.5340 H        23        0    0.0000
    145 C         167.3483   39.6115   73.3670 C.3      24        0    0.0000
    146 C         166.1399   39.4874   72.4324 C.3      24        0    0.0000
    147 H         167.0109   39.7428   74.4026 H        24        0    0.0000
    148 H         167.9322   40.5041   73.1103 H        24        0    0.0000
    149 H         166.4476   39.0464   71.4762 H        24        0    0.0000
    150 H         165.3960   38.8086   72.8675 H        24        0    0.0000
    151 C         165.4591   40.8719   72.1544 C.3      25        0    0.0000
    152 C         164.9229   40.9785   70.7226 C.3      25        0    0.0000
    153 H         164.6430   41.0154   72.8734 H        25        0    0.0000
    154 H         166.1889   41.6690   72.3431 H        25        0    0.0000
    155 H         165.6904   40.6552   70.0085 H        25        0    0.0000
    156 H         164.0665   40.3057   70.5906 H        25        0    0.0000
    157 C         164.4792   42.4380   70.3614 C.3      26        0    0.0000
    158 C         163.0201   42.5034   69.8969 C.3      26        0    0.0000
    159 H         164.6234   43.0790   71.2399 H        26        0    0.0000
    160 H         165.1414   42.8249   69.5770 H        26        0    0.0000
    161 H         162.9731   42.4864   68.8010 H        26        0    0.0000
    162 H         162.4732   41.6201   70.2495 H        26        0    0.0000
    163 C         162.2891   43.7901   70.4141 C.3      27        0    0.0000
    164 C         160.8460   43.8821   69.9060 C.3      27        0    0.0000
    165 H         162.3022   43.7874   71.5111 H        27        0    0.0000
    166 H         162.8575   44.6723   70.0944 H        27        0    0.0000
    167 H         160.8300   43.8432   68.8098 H        27        0    0.0000
    168 H         160.2668   43.0205   70.2604 H        27        0    0.0000
    169 C         160.1337   45.1974   70.3753 C.3      28        0    0.0000
    170 C         159.4014   45.9024   69.2282 C.3      28        0    0.0000
    171 H         159.4269   44.9499   71.1770 H        28        0    0.0000
    172 H         160.8832   45.8689   70.8122 H        28        0    0.0000
    173 H         159.9450   45.7533   68.2870 H        28        0    0.0000
    174 H         158.4062   45.4620   69.0903 H        28        0    0.0000
    175 C         159.2424   47.4412   69.4817 C.3      29        0    0.0000
    176 C         159.4530   48.2647   68.2064 C.3      29        0    0.0000
    177 H         158.2423   47.6306   69.8909 H        29        0    0.0000
    178 H         159.9612   47.7489   70.2512 H        29        0    0.0000
    179 H         160.1272   47.7339   67.5228 H        29        0    0.0000
    180 H         158.5003   48.3880   67.6766 H        29        0    0.0000
    181 C         160.0514   49.6822   68.5066 C.3      30        0    0.0000
    182 C         160.7887   50.2693   67.2979 C.3      30        0    0.0000
    183 H         159.2381   50.3518   68.8127 H        30        0    0.0000
    184 H         160.7339   49.6040   69.3619 H        30        0    0.0000
    185 H         161.5489   49.5632   66.9416 H        30        0    0.0000
    186 H         160.0878   50.4230   66.4680 H        30        0    0.0000
    187 C         161.4837   51.6343   67.6315 C.3      31        0    0.0000
    188 C         162.1206   52.2791   66.3956 C.3      31        0    0.0000
    189 H         160.7401   52.3122   68.0685 H        31        0    0.0000
    190 H         162.2459   51.4640   68.4020 H        31        0    0.0000
    191 H         162.8899   51.6166   65.9799 H        31        0    0.0000
    192 H         161.3656   52.4162   65.6116 H        31        0    0.0000
    193 C         162.7713   53.6682   66.7190 C.3      32        0    0.0000
    194 C         163.3495   54.3435   65.4705 C.3      32        0    0.0000
    195 H         162.0141   54.3147   67.1798 H        32        0    0.0000
    196 H         163.5599   53.5236   67.4678 H        32        0    0.0000
    197 H         164.2959   53.8658   65.1886 H        32        0    0.0000
    198 H         162.6661   54.2139   64.6221 H        32        0    0.0000
    199 C         163.6016   55.8756   65.6866 C.3      33        0    0.0000
    200 C         164.0243   56.5827   64.3942 C.3      33        0    0.0000
    201 H         162.6862   56.3321   66.0831 H        33        0    0.0000
    202 H         164.3747   56.0018   66.4546 H        33        0    0.0000
    203 H         165.0924   56.4170   64.2068 H        33        0    0.0000
    204 H         163.4847   56.1573   63.5389 H        33        0    0.0000
    205 C         163.7537   58.1259   64.4455 C.3      34        0    0.0000
    206 C         164.3590   58.8620   63.2451 C.3      34        0    0.0000
    207 H         162.6702   58.2939   64.4824 H        34        0    0.0000
    208 H         164.1666   58.5265   65.3796 H        34        0    0.0000
    209 H         165.2927   58.3753   62.9372 H        34        0    0.0000
    210 H         163.6773   58.8069   62.3873 H        34        0    0.0000
    211 C         164.6546   60.3690   63.5596 C.3      35        0    0.0000
    212 C         165.8810   60.8906   62.8028 C.3      35        0    0.0000
    213 H         163.7707   60.9645   63.2995 H        35        0    0.0000
    214 H         164.8035   60.4820   64.6406 H        35        0    0.0000
    215 H         166.5121   60.0513   62.4852 H        35        0    0.0000
    216 H         165.5662   61.4111   61.8898 H        35        0    0.0000
    217 C         166.7428   61.8705   63.6714 C.3      36        0    0.0000
    218 C         168.2467   61.6648   63.4596 C.3      36        0    0.0000
    219 H         166.4653   62.9020   63.4213 H        36        0    0.0000
    220 H         166.4881   61.7233   64.7283 H        36        0    0.0000
    221 H         168.4868   60.5946   63.4820 H        36        0    0.0000
    222 H         168.5410   62.0331   62.4690 H        36        0    0.0000
    223 C         169.1056   62.3981   64.5469 C.3      37        0    0.0000
    224 C         170.2102   63.2623   63.9289 C.3      37        0    0.0000
    225 H         168.4423   63.0186   65.1621 H        37        0    0.0000
    226 H         169.5450   61.6477   65.2158 H        37        0    0.0000
    227 H         171.1592   62.7120   63.9226 H        37        0    0.0000
    228 H         169.9701   63.4882   62.8826 H        37        0    0.0000
    229 C         170.4130   64.6103   64.7031 C.3      38        0    0.0000
    230 C         170.3486   65.8284   63.7752 C.3      38        0    0.0000
    231 H         169.6446   64.6897   65.4821 H        38        0    0.0000
    232 H         171.3814   64.5803   65.2178 H        38        0    0.0000
    233 H         171.3617   66.1392   63.4914 H        38        0    0.0000
    234 H         169.8276   65.5663   62.8460 H        38        0    0.0000
    235 C         169.6150   67.0437   64.4403 C.3      39        0    0.0000
    236 C         169.1637   68.0846   63.4097 C.3      39        0    0.0000
    237 H         168.7495   66.6703   65.0015 H        39        0    0.0000
    238 H         170.2890   67.5064   65.1718 H        39        0    0.0000
    239 H         170.0315   68.4723   62.8618 H        39        0    0.0000
    240 H         168.5052   67.6175   62.6669 H        39        0    0.0000
    241 C         168.4060   69.2866   64.0719 C.3      40        0    0.0000
    242 C         168.5639   70.5844   63.2719 C.3      40        0    0.0000
    243 H         167.3438   69.0279   64.1632 H        40        0    0.0000
    244 H         168.7854   69.4249   65.0919 H        40        0    0.0000
    245 H         169.6232   70.7624   63.0491 H        40        0    0.0000
    246 H         168.0495   70.4963   62.3069 H        40        0    0.0000
    247 C         167.9927   71.8274   64.0374 C.3      41        0    0.0000
    248 C         168.3695   73.1499   63.3606 C.3      41        0    0.0000
    249 H         166.9014   71.7339   64.0991 H        41        0    0.0000
    250 H         168.3689   71.8116   65.0678 H        41        0    0.0000
    251 H         169.4589   73.2197   63.2517 H        41        0    0.0000
    252 H         167.9486   73.1876   62.3482 H        41        0    0.0000
    253 C         167.8613   74.3953   64.1658 C.3      42        0    0.0000
    254 C         167.5288   75.5808   63.2531 C.3      42        0    0.0000
    255 H         166.9749   74.1051   64.7435 H        42        0    0.0000
    256 H         168.6304   74.6842   64.8927 H        42        0    0.0000
    257 H         168.3847   75.8089   62.6058 H        42        0    0.0000
    258 H         166.6930   75.3230   62.5909 H        42        0    0.0000
    259 C         167.1520   76.8680   64.0647 C.3      43        0    0.0000
    260 C         167.5137   78.1545   63.3143 C.3      43        0    0.0000
    261 H         166.0765   76.8479   64.2801 H        43        0    0.0000
    262 H         167.6677   76.8393   65.0326 H        43        0    0.0000
    263 H         168.5690   78.1315   63.0153 H        43        0    0.0000
    264 H         166.9262   78.2292   62.3909 H        43        0    0.0000
    265 C         167.2614   79.4375   64.1790 C.3      44        0    0.0000
    266 C         166.4014   80.4725   63.4453 C.3      44        0    0.0000
    267 H         166.7757   79.1418   65.1171 H        44        0    0.0000
    268 H         168.2293   79.8770   64.4503 H        44        0    0.0000
    269 H         167.0404   81.1477   62.8629 H        44        0    0.0000
    270 H         165.7381   79.9710   62.7297 H        44        0    0.0000
    271 C         165.5297   81.3258   64.4299 C.3      45        0    0.0000
    272 C         164.3844   82.0496   63.7133 C.3      45        0    0.0000
    273 H         165.1285   80.6663   65.2094 H        45        0    0.0000
    274 H         166.1768   82.0535   64.9351 H        45        0    0.0000
    275 H         164.7875   82.7439   62.9656 H        45        0    0.0000
    276 H         163.7641   81.3264   63.1695 H        45        0    0.0000
    277 C         163.4736   82.8501   64.7069 C.3      46        0    0.0000
    278 C         162.9742   84.1677   64.1040 C.3      46        0    0.0000
    279 H         162.6218   82.2200   64.9916 H        46        0    0.0000
    280 H         164.0403   83.0475   65.6252 H        46        0    0.0000
    281 H         163.8072   84.7069   63.6360 H        46        0    0.0000
    282 H         162.2443   83.9655   63.3103 H        46        0    0.0000
    283 C         162.3096   85.0977   65.1767 C.3      47        0    0.0000
    284 C         161.8801   86.4469   64.5899 C.3      47        0    0.0000
    285 H         161.4419   84.5803   65.6045 H        47        0    0.0000
    286 H         163.0197   85.2538   65.9982 H        47        0    0.0000
    287 H         162.7469   86.9621   64.1576 H        47        0    0.0000
    288 H         161.1660   86.2911   63.7717 H        47        0    0.0000
    289 C         161.2219   87.3796   65.6642 C.3      48        0    0.0000
    290 C         160.5930   88.6305   65.0406 C.3      48        0    0.0000
    291 H         160.4609   86.8082   66.2100 H        48        0    0.0000
    292 H         161.9853   87.6681   66.3974 H        48        0    0.0000
    293 H         161.3714   89.2567   64.5872 H        48        0    0.0000
    294 H         159.9086   88.3443   64.2324 H        48        0    0.0000
    295 C         159.8046   89.4859   66.0913 C.3      49        0    0.0000
    296 C         158.9334   90.5596   65.4300 C.3      49        0    0.0000
    297 H         159.1813   88.8160   66.6966 H        49        0    0.0000
    298 H         160.5222   89.9534   66.7767 H        49        0    0.0000
    299 H         159.5674   91.3233   64.9629 H        49        0    0.0000
    300 H         158.3327   90.1146   64.6271 H        49        0    0.0000
    301 C         157.9720   91.2575   66.4528 C.3      50        0    0.0000
    302 C         157.0957   92.3262   65.7902 C.3      50        0    0.0000
    303 H         157.3416   90.4932   66.9238 H        50        0    0.0000
    304 H         158.5730   91.7070   67.2530 H        50        0    0.0000
    305 H         156.9977   92.1200   64.7171 H        50        0    0.0000
    306 H         156.0828   92.2958   66.2105 H        50        0    0.0000
    307 C         157.6768   93.7702   65.9762 C.3      51        0    0.0000
    308 C         156.7818   94.8423   65.3448 C.3      51        0    0.0000
    309 H         157.7997   93.9665   67.0485 H        51        0    0.0000
    310 H         158.6793   93.8078   65.5322 H        51        0    0.0000
    311 H         156.6581   94.6454   64.2727 H        51        0    0.0000
    312 H         155.7797   94.8054   65.7896 H        51        0    0.0000
    313 C         157.3638   96.2861   65.5294 C.3      52        0    0.0000
    314 C         156.4948   97.3533   64.8549 C.3      52        0    0.0000
    315 H         157.4532   96.4968   66.6023 H        52        0    0.0000
    316 H         158.3802   96.3131   65.1174 H        52        0    0.0000
    317 H         156.3175   97.0860   63.8058 H        52        0    0.0000
    318 H         155.5114   97.3987   65.3390 H        52        0    0.0000
    319 C         157.1512   98.7758   64.9099 C.3      53        0    0.0000
    320 C         156.3807   99.8038   64.0740 C.3      53        0    0.0000
    321 H         157.2002   99.1024   65.9561 H        53        0    0.0000
    322 H         158.1863   98.7017   64.5543 H        53        0    0.0000
    323 H         156.0939   99.3657   63.1100 H        53        0    0.0000
    324 H         155.4495  100.0810   64.5835 H        53        0    0.0000
    325 C         157.2180  101.1024   63.8098 C.3      54        0    0.0000
    326 C         156.4902  102.0848   62.8857 C.3      54        0    0.0000
    327 H         157.4381  101.5829   64.7711 H        54        0    0.0000
    328 H         158.1827  100.8181   63.3716 H        54        0    0.0000
    329 H         155.6110  102.4990   63.3946 H        54        0    0.0000
    330 H         157.1446  102.9325   62.6474 H        54        0    0.0000
    331 C         156.0287  101.4110   61.5476 C.3      55        0    0.0000
    332 C         155.3783  102.4127   60.5870 C.3      55        0    0.0000
    333 H         156.8977  100.9417   61.0699 H        55        0    0.0000
    334 H         155.3242  100.6036   61.7828 H        55        0    0.0000
    335 H         155.1690  101.9294   59.6246 H        55        0    0.0000
    336 H         154.4134  102.7465   60.9883 H        55        0    0.0000
    337 C         156.2827  103.6682   60.3358 C.3      56        0    0.0000
    338 C         155.6111  104.6931   59.4152 C.3      56        0    0.0000
    339 H         156.5224  104.1302   61.3015 H        56        0    0.0000
    340 H         157.2337  103.3375   59.9001 H        56        0    0.0000
    341 H         154.8159  104.2114   58.8328 H        56        0    0.0000
    342 H         155.1321  105.4786   60.0128 H        56        0    0.0000
    343 C         156.6284  105.3601   58.4264 C.3      57        0    0.0000
    344 C         155.9494  106.3530   57.4767 C.3      57        0    0.0000
    345 H         157.4062  105.8688   59.0092 H        57        0    0.0000
    346 H         157.1304  104.5724   57.8510 H        57        0    0.0000
    347 H         155.2751  105.8203   56.7947 H        57        0    0.0000
    348 H         155.3296  107.0556   58.0474 H        57        0    0.0000
    349 C         156.9859  107.1675   56.6284 C.3      58        0    0.0000
    350 C         156.3073  108.1680   55.6863 C.3      58        0    0.0000
    351 H         157.6650  107.6941   57.3103 H        58        0    0.0000
    352 H         157.6006  106.4652   56.0518 H        58        0    0.0000
    353 H         156.6431  109.1871   55.9146 H        58        0    0.0000
    354 H         156.5993  107.9651   54.6485 H        58        0    0.0000
    355 C         154.7440  108.1159   55.7906 C.3      59        0    0.0000
    356 C         154.0718  109.2550   55.0162 C.3      59        0    0.0000
    357 H         154.3964  107.1469   55.4114 H        59        0    0.0000
    358 H         154.4585  108.1607   56.8489 H        59        0    0.0000
    359 H         154.4824  110.2208   55.3361 H        59        0    0.0000
    360 H         154.2878  109.1602   53.9448 H        59        0    0.0000
    361 C         152.5174  109.2748   55.2186 C.3      60        0    0.0000
    362 C         151.8456  110.4154   54.4462 C.3      60        0    0.0000
    363 H         152.1067  108.3097   54.8971 H        60        0    0.0000
    364 H         152.3015  109.3679   56.2902 H        60        0    0.0000
    365 H         152.2336  111.3823   54.7900 H        60        0    0.0000
    366 H         152.0875  110.3405   53.3788 H        60        0    0.0000
    367 C         150.2869  110.4084   54.6127 C.3      61        0    0.0000
    368 C         149.6134  111.5374   53.8248 C.3      61        0    0.0000
    369 H         149.9003  109.4364   54.2821 H        61        0    0.0000
    370 H         150.0448  110.4976   55.6790 H        61        0    0.0000
    371 H         149.9074  112.5108   54.2366 H        61        0    0.0000
    372 H         149.9518  111.5216   52.7813 H        61        0    0.0000
    373 C         148.0497  111.4292   53.8506 C.3      62        0    0.0000
    374 C         147.3755  112.5753   53.0884 C.3      62        0    0.0000
    375 H         147.7548  110.4651   53.4181 H        62        0    0.0000
    376 H         147.7130  111.4223   54.8946 H        62        0    0.0000
    377 H         148.0687  113.4197   52.9886 H        62        0    0.0000
    378 H         147.1230  112.2530   52.0706 H        62        0    0.0000
    379 C         146.0703  113.0744   53.7988 C.3      63        0    0.0000
    380 C         145.2913  114.0795   52.9432 C.3      63        0    0.0000
    381 H         145.4390  112.2071   54.0286 H        63        0    0.0000
    382 H         146.3423  113.5293   54.7593 H        63        0    0.0000
    383 H         145.6986  115.0884   53.0837 H        63        0    0.0000
    384 H         145.4079  113.8379   51.8795 H        63        0    0.0000
    385 C         143.7632  114.0983   53.2925 C.3      64        0    0.0000
    386 C         142.9993  115.1648   52.4999 C.3      64        0    0.0000
    387 H         143.3419  113.1057   53.0902 H        64        0    0.0000
    388 H         143.6486  114.2757   54.3690 H        64        0    0.0000
    389 H         143.4781  116.1435   52.6280 H        64        0    0.0000
    390 H         143.0352  114.9344   51.4279 H        64        0    0.0000
    391 C         141.4997  115.2741   52.9433 C.3      65        0    0.0000
    392 C         140.8245  116.5390   52.4018 C.3      65        0    0.0000
    393 H         140.9624  114.3828   52.5961 H        65        0    0.0000
    394 H         141.4533  115.2627   54.0394 H        65        0    0.0000
    395 H         141.4200  117.4233   52.6605 H        65        0    0.0000
    396 H         140.7771  116.5005   51.3065 H        65        0    0.0000
    397 C         139.3732  116.7249   52.9643 C.3      66        0    0.0000
    398 C         138.7242  118.0257   52.4785 C.3      66        0    0.0000
    399 H         138.7636  115.8645   52.6615 H        66        0    0.0000
    400 H         139.4144  116.7117   54.0605 H        66        0    0.0000
    401 H         139.3433  118.8848   52.7651 H        66        0    0.0000
    402 H         138.6660  118.0307   51.3830 H        66        0    0.0000
    403 C         137.2828  118.2245   53.0620 C.3      67        0    0.0000
    404 C         136.5897  119.4651   52.4878 C.3      67        0    0.0000
    405 H         136.6878  117.3281   52.8475 H        67        0    0.0000
    406 H         137.3512  118.3034   54.1540 H        67        0    0.0000
    407 H         137.1630  120.3662   52.7388 H        67        0    0.0000
    408 H         136.5592  119.4059   51.3928 H        67        0    0.0000
    409 C         135.1267  119.6308   53.0259 C.3      68        0    0.0000
    410 C         134.3126  120.6303   52.1969 C.3      68        0    0.0000
    411 H         134.6352  118.6500   53.0216 H        68        0    0.0000
    412 H         135.1697  119.9570   54.0725 H        68        0    0.0000
    413 H         134.7603  121.6294   52.2665 H        68        0    0.0000
    414 H         134.3365  120.3475   51.1372 H        68        0    0.0000
    415 C         132.8186  120.7123   52.6645 C.3      69        0    0.0000
    416 C         131.8384  120.6725   51.4869 C.3      69        0    0.0000
    417 H         132.6166  119.8802   53.3503 H        69        0    0.0000
    418 H         132.6783  121.6358   53.2397 H        69        0    0.0000
    419 H         131.8670  121.6239   50.9414 H        69        0    0.0000
    420 H         132.1365  119.8924   50.7755 H        69        0    0.0000
    421 C         130.3656  120.3990   51.9489 C.3      70        0    0.0000
    422 C         129.4139  121.5353   51.5587 C.3      70        0    0.0000
    423 H         130.0256  119.4547   51.5058 H        70        0    0.0000
    424 H         130.3567  120.2577   53.0368 H        70        0    0.0000
    425 H         129.9465  122.4943   51.5749 H        70        0    0.0000
    426 H         129.0565  121.3907   50.5316 H        70        0    0.0000
    427 C         128.1760  121.6286   52.5160 C.3      71        0    0.0000
    428 C         127.0168  122.4132   51.8918 C.3      71        0    0.0000
    429 H         127.8487  120.6130   52.7708 H        71        0    0.0000
    430 H         128.4894  122.1032   53.4541 H        71        0    0.0000
    431 H         127.3223  123.4500   51.7040 H        71        0    0.0000
    432 H         126.7515  121.9818   50.9186 H        71        0    0.0000
    433 C         125.7433  122.4194   52.8058 C.3      72        0    0.0000
    434 C         124.7117  123.4607   52.3577 C.3      72        0    0.0000
    435 H         125.2957  121.4178   52.7954 H        72        0    0.0000
    436 H         126.0513  122.6160   53.8402 H        72        0    0.0000
    437 H         125.1890  124.4432   52.2557 H        72        0    0.0000
    438 H         124.3173  123.1978   51.3683 H        72        0    0.0000
    439 C         123.5150  123.5821   53.3629 C.3      73        0    0.0000
    440 C         122.5893  124.7559   53.0248 C.3      73        0    0.0000
    441 H         122.9492  122.6423   53.3543 H        73        0    0.0000
    442 H         123.9158  123.6993   54.3774 H        73        0    0.0000
    443 H         123.1667  125.6872   52.9717 H        73        0    0.0000
    444 H         122.1395  124.6073   52.0352 H        73        0    0.0000
    445 C         121.4430  124.9315   54.0796 C.3      74        0    0.0000
    446 C         120.4771  126.0611   53.7052 C.3      74        0    0.0000
    447 H         120.8971  123.9842   54.1696 H        74        0    0.0000
    448 H         121.8924  125.1305   55.0604 H        74        0    0.0000
    449 H         121.0134  127.0174   53.6670 H        74        0    0.0000
    450 H         120.0679  125.8891   52.7019 H        74        0    0.0000
    451 C         119.2894  126.1881   54.7204 C.3      75        0    0.0000
    452 C         118.2452  127.2144   54.2672 C.3      75        0    0.0000
    453 H         118.8211  125.2035   54.8417 H        75        0    0.0000
    454 H         119.6915  126.4688   55.7018 H        75        0    0.0000
    455 H         118.7305  128.1740   54.0497 H        75        0    0.0000
    456 H         117.7714  126.8826   53.3350 H        75        0    0.0000
    457 C         117.1312  127.4446   55.3460 C.3      76        0    0.0000
    458 C         116.1562  128.5574   54.9458 C.3      76        0    0.0000
    459 H         116.5869  126.5044   55.4984 H        76        0    0.0000
    460 H         117.6102  127.6899   56.3020 H        76        0    0.0000
    461 H         116.1988  128.7231   53.8621 H        76        0    0.0000
    462 H         115.1270  128.2572   55.1783 H        76        0    0.0000
    463 C         116.4656  129.9095   55.6763 C.3      77        0    0.0000
    464 C         115.3284  130.9256   55.5236 C.3      77        0    0.0000
    465 H         116.6464  129.7041   56.7387 H        77        0    0.0000
    466 H         117.3975  130.3243   55.2726 H        77        0    0.0000
    467 H         115.1460  131.1291   54.4611 H        77        0    0.0000
    468 H         114.3970  130.5117   55.9295 H        77        0    0.0000
    469 C         115.6393  132.2789   56.2512 C.3      78        0    0.0000
    470 C         114.4583  133.2541   56.1934 C.3      78        0    0.0000
    471 H         115.9014  132.0670   57.2952 H        78        0    0.0000
    472 H         116.5250  132.7330   55.7899 H        78        0    0.0000
    473 H         114.2309  133.5082   55.1507 H        78        0    0.0000
    474 H         113.5587  132.7802   56.6055 H        78        0    0.0000
    475 C         114.7407  134.5768   56.9859 C.3      79        0    0.0000
    476 C         113.5160  135.4969   57.0357 C.3      79        0    0.0000
    477 H         115.0586  134.3183   58.0035 H        79        0    0.0000
    478 H         115.5837  135.0978   56.5153 H        79        0    0.0000
    479 H         113.1351  135.5609   58.0625 H        79        0    0.0000
    480 H         113.7981  136.5151   56.7403 H        79        0    0.0000
    481 C         112.3615  135.0005   56.0985 C.3      80        0    0.0000
    482 C         111.0798  135.8232   56.2700 C.3      80        0    0.0000
    483 H         112.7046  135.0512   55.0576 H        80        0    0.0000
    484 H         112.1616  133.9434   56.3132 H        80        0    0.0000
    485 H         110.9383  136.0832   57.3263 H        80        0    0.0000
    486 H         111.1639  136.7694   55.7211 H        80        0    0.0000
    487 C         109.8096  135.0565   55.7638 C.3      81        0    0.0000
    488 C         108.5335  135.8949   55.8974 C.3      81        0    0.0000
    489 H         109.9635  134.7702   54.7160 H        81        0    0.0000
    490 H         109.7087  134.1245   56.3335 H        81        0    0.0000
    491 H         107.6942  135.3826   55.4109 H        81        0    0.0000
    492 H         108.2648  136.0049   56.9554 H        81        0    0.0000
    493 C         108.6904  137.3207   55.2650 C.3      82        0    0.0000
    494 C         107.3976  138.1395   55.3506 C.3      82        0    0.0000
    495 H         109.5042  137.8476   55.7785 H        82        0    0.0000
    496 H         108.9976  137.2110   54.2176 H        82        0    0.0000
    497 H         107.1986  138.4205   56.3922 H        82        0    0.0000
    498 H         107.5067  139.0746   54.7874 H        82        0    0.0000
    499 C         106.1598  137.3555   54.7934 C.3      83        0    0.0000
    500 C         104.8523  138.1366   54.9648 C.3      83        0    0.0000
    501 H         106.3296  137.1344   53.7323 H        83        0    0.0000
    502 H         106.0914  136.3897   55.3094 H        83        0    0.0000
    503 H         104.0538  137.6672   54.3768 H        83        0    0.0000
    504 H         104.5308  138.1064   56.0132 H        83        0    0.0000
    505 C         104.9923  139.6339   54.5220 C.3      84        0    0.0000
    506 C         103.6384  140.3490   54.4553 C.3      84        0    0.0000
    507 H         105.6562  140.1503   55.2265 H        84        0    0.0000
    508 H         105.4846  139.6683   53.5422 H        84        0    0.0000
    509 H         102.9006  139.7114   53.9526 H        84        0    0.0000
    510 H         103.2589  140.5312   55.4684 H        84        0    0.0000
    511 C         103.7258  141.7170   53.6948 C.3      85        0    0.0000
    512 C         102.3548  142.3845   53.5406 C.3      85        0    0.0000
    513 H         104.4085  142.3811   54.2392 H        85        0    0.0000
    514 H         104.1736  141.5450   52.7082 H        85        0    0.0000
    515 H         101.6108  141.6455   53.2184 H        85        0    0.0000
    516 H         102.0145  142.7728   54.5086 H        85        0    0.0000
    517 C         102.3800  143.5609   52.5048 C.3      86        0    0.0000
    518 C         100.9962  144.1891   52.3055 C.3      86        0    0.0000
    519 H         103.0919  144.3209   52.8501 H        86        0    0.0000
    520 H         102.7624  143.1823   51.5488 H        86        0    0.0000
    521 H         101.0460  145.2713   52.4780 H        86        0    0.0000
    522 H         100.6659  144.0502   51.2687 H        86        0    0.0000
    523 C          99.9205  143.5734   53.2653 C.3      87        0    0.0000
    524 C          98.4995  144.0258   52.9115 C.3      87        0    0.0000
    525 H          99.9896  142.4795   53.2186 H        87        0    0.0000
    526 H         100.1609  143.8605   54.2965 H        87        0    0.0000
    527 H          98.2052  144.8716   53.5453 H        87        0    0.0000
    528 H          98.4654  144.3823   51.8746 H        87        0    0.0000
    529 C          97.4492  142.8750   53.0850 C.3      88        0    0.0000
    530 C          96.0338  143.3172   52.6975 C.3      88        0    0.0000
    531 H          97.7573  142.0196   52.4711 H        88        0    0.0000
    532 H          97.4650  142.5361   54.1283 H        88        0    0.0000
    533 H          95.9516  143.4023   51.6069 H        88        0    0.0000
    534 H          95.3042  142.5599   53.0103 H        88        0    0.0000
    535 C          95.6433  144.6917   53.3424 C.3      89        0    0.0000
    536 C          94.2259  145.1313   52.9594 C.3      89        0    0.0000
    537 H          95.7294  144.6078   54.4329 H        89        0    0.0000
    538 H          96.3706  145.4498   53.0265 H        89        0    0.0000
    539 H          93.6162  145.2631   53.8618 H        89        0    0.0000
    540 H          94.2574  146.1052   52.4554 H        89        0    0.0000
    541 C          93.5175  144.0976   52.0176 C.3      90        0    0.0000
    542 C          92.0323  144.4182   51.8159 C.3      90        0    0.0000
    543 H          94.0349  144.0880   51.0502 H        90        0    0.0000
    544 H          93.6308  143.0938   52.4454 H        90        0    0.0000
    545 H          91.4216  143.8197   52.5032 H        90        0    0.0000
    546 H          91.8386  145.4707   52.0575 H        90        0    0.0000
    547 C          91.5588  144.1415   50.3474 C.3      91        0    0.0000
    548 C          90.2499  144.8653   50.0130 C.3      91        0    0.0000
    549 H          92.3500  144.4561   49.6555 H        91        0    0.0000
    550 H          91.4352  143.0596   50.2137 H        91        0    0.0000
    551 H          89.5858  144.1997   49.4477 H        91        0    0.0000
    552 H          89.7196  145.1294   50.9364 H        91        0    0.0000
    553 C          90.4891  146.1696   49.1769 C.3      92        0    0.0000
    554 C          89.1796  146.7792   48.6642 C.3      92        0    0.0000
    555 H          91.0234  146.8966   49.8010 H        92        0    0.0000
    556 H          91.1494  145.9328   48.3335 H        92        0    0.0000
    557 H          88.6030  146.0245   48.1152 H        92        0    0.0000
    558 H          88.5569  147.0981   49.5092 H        92        0    0.0000
    559 C          89.4250  148.0097   47.7245 C.3      93        0    0.0000
    560 C          88.1152  148.6467   47.2476 C.3      93        0    0.0000
    561 H          90.0295  148.7505   48.2626 H        93        0    0.0000
    562 H          90.0203  147.6834   46.8627 H        93        0    0.0000
    563 H          87.5976  147.9700   46.5564 H        93        0    0.0000
    564 H          87.4412  148.8033   48.0990 H        93        0    0.0000
    565 C          88.3495  150.0203   46.5294 C.3      94        0    0.0000
    566 C          87.0374  150.6707   46.0774 C.3      94        0    0.0000
    567 H          88.8853  150.6901   47.2133 H        94        0    0.0000
    568 H          89.0069  149.8602   45.6659 H        94        0    0.0000
    569 H          86.8498  150.4442   45.0205 H        94        0    0.0000
    570 H          86.1957  150.2526   46.6434 H        94        0    0.0000
    571 C          87.0498  152.2269   46.2662 C.3      95        0    0.0000
    572 C          85.7310  152.8754   45.8309 C.3      95        0    0.0000
    573 H          87.2504  152.4536   47.3206 H        95        0    0.0000
    574 H          87.8835  152.6464   45.6896 H        95        0    0.0000
    575 H          85.2730  153.4014   46.6777 H        95        0    0.0000
    576 H          85.9201  153.6293   45.0567 H        95        0    0.0000
    577 C          84.7079  151.8257   45.2750 C.3      96        0    0.0000
    578 C          83.3220  152.4352   45.0370 C.3      96        0    0.0000
    579 H          85.1015  151.4095   44.3393 H        96        0    0.0000
    580 H          84.6355  150.9923   45.9847 H        96        0    0.0000
    581 H          83.2106  153.3564   45.6224 H        96        0    0.0000
    582 H          83.2108  152.7167   43.9825 H        96        0    0.0000
    583 C          82.1654  151.4493   45.4214 C.3      97        0    0.0000
    584 C          80.7806  152.0829   45.2488 C.3      97        0    0.0000
    585 H          82.2472  150.5489   44.8000 H        97        0    0.0000
    586 H          82.3053  151.1283   46.4611 H        97        0    0.0000
    587 H          80.0037  151.3104   45.3056 H        97        0    0.0000
    588 H          80.5847  152.7874   46.0667 H        97        0    0.0000
    589 C          80.6402  152.8414   43.8841 C.3      98        0    0.0000
    590 C          79.2937  153.5623   43.7561 C.3      98        0    0.0000
    591 H          81.4626  153.5618   43.7937 H        98        0    0.0000
    592 H          80.7606  152.1213   43.0653 H        98        0    0.0000
    593 H          79.4489  154.6481   43.7352 H        98        0    0.0000
    594 H          78.8123  153.2946   42.8074 H        98        0    0.0000
    595 C          78.3189  153.2138   44.9333 C.3      99        0    0.0000
    596 C          76.9034  153.7504   44.6937 C.3      99        0    0.0000
    597 H          78.2919  152.1243   45.0592 H        99        0    0.0000
    598 H          78.7259  153.6284   45.8639 H        99        0    0.0000
    599 H          76.7931  154.7397   45.1549 H        99        0    0.0000
    600 H          76.7282  153.8826   43.6188 H        99        0    0.0000
    601 C          75.8010  152.7976   45.2718 C.3     100        0    0.0000
    602 C          74.3854  153.3323   45.0287 C.3     100        0    0.0000
    603 H          75.9132  151.8075   44.8128 H       100        0    0.0000
    604 H          75.9745  152.6676   46.3473 H       100        0    0.0000
    605 H          73.6439  152.5699   45.2982 H       100        0    0.0000
    606 H          74.1948  154.1990   45.6737 H       100        0    0.0000
    607 C          74.1576  153.7534   43.5360 C.3     101        0    0.0000
    608 C          72.8175  154.4686   43.3322 C.3     101        0    0.0000
    609 H          74.9830  154.4045   43.2224 H       101        0    0.0000
    610 H          74.2057  152.8575   42.9046 H       101        0    0.0000
    611 H          72.9857  155.5359   43.1425 H       101        0    0.0000
    612 H          72.3079  154.0677   42.4472 H       101        0    0.0000
    613 C          71.8698  154.3190   44.5720 C.3     102        0    0.0000
    614 C          70.4579  154.8451   44.2907 C.3     102        0    0.0000
    615 H          71.8268  153.2610   44.8586 H       102        0    0.0000
    616 H          72.3098  154.8577   45.4204 H       102        0    0.0000
    617 H          70.3600  155.8744   44.6574 H       102        0    0.0000
    618 H          70.2771  154.8775   43.2091 H       102        0    0.0000
    619 C          69.3502  153.9620   44.9620 C.3     103        0    0.0000
    620 C          67.9424  154.5232   44.7336 C.3     103        0    0.0000
    621 H          69.4187  152.9433   44.5607 H       103        0    0.0000
    622 H          69.5573  153.8917   46.0370 H       103        0    0.0000
    623 H          67.6599  154.4127   43.6793 H       103        0    0.0000
    624 H          67.2103  153.9517   45.3175 H       103        0    0.0000
    625 C          67.8345  156.0361   45.1297 C.3     104        0    0.0000
    626 C          66.4887  156.6479   44.7253 C.3     104        0    0.0000
    627 H          67.9796  156.1292   46.2131 H       104        0    0.0000
    628 H          68.6558  156.5858   44.6535 H       104        0    0.0000
    629 H          66.5868  157.1726   43.7668 H       104        0    0.0000
    630 H          65.7449  155.8553   44.5759 H       104        0    0.0000
    631 C          65.9466  157.6536   45.7987 C.3     105        0    0.0000
    632 C          64.5911  158.2499   45.4038 C.3     105        0    0.0000
    633 H          65.8626  157.1328   46.7606 H       105        0    0.0000
    634 H          66.6838  158.4542   45.9372 H       105        0    0.0000
    635 H          64.6857  158.8105   44.4655 H       105        0    0.0000
    636 H          63.8664  157.4472   45.2195 H       105        0    0.0000
    637 C          64.0179  159.2046   46.5072 C.3     106        0    0.0000
    638 C          62.6514  159.7823   46.1227 C.3     106        0    0.0000
    639 H          63.9396  158.6488   47.4498 H       106        0    0.0000
    640 H          64.7349  160.0170   46.6791 H       106        0    0.0000
    641 H          62.7691  160.5309   45.3295 H       106        0    0.0000
    642 H          62.0093  158.9910   45.7163 H       106        0    0.0000
    643 C          61.9234  160.4476   47.3413 C.3     107        0    0.0000
    644 C          60.5494  161.0100   46.9607 C.3     107        0    0.0000
    645 H          61.8170  159.7025   48.1394 H       107        0    0.0000
    646 H          62.5600  161.2473   47.7398 H       107        0    0.0000
    647 H          60.2253  161.7475   47.7055 H       107        0    0.0000
    648 H          60.6117  161.5379   46.0010 H       107        0    0.0000
    649 C          59.4585  159.8896   46.8511 C.3     108        0    0.0000
    650 C          58.0669  160.4606   46.5573 C.3     108        0    0.0000
    651 H          59.7513  159.1870   46.0611 H       108        0    0.0000
    652 H          59.4411  159.3201   47.7886 H       108        0    0.0000
    653 H          58.0366  160.8735   45.5413 H       108        0    0.0000
    654 H          57.3166  159.6612   46.5950 H       108        0    0.0000
    655 C          57.6594  161.5842   47.5717 C.3     109        0    0.0000
    656 C          56.3750  162.3076   47.1522 C.3     109        0    0.0000
    657 H          57.5311  161.1349   48.5642 H       109        0    0.0000
    658 H          58.4851  162.3018   47.6550 H       109        0    0.0000
    659 H          55.7526  162.5101   48.0326 H       109        0    0.0000
    660 H          56.6191  163.2807   46.7084 H       109        0    0.0000
    661 C          55.5358  161.4778   46.1203 C.3     110        0    0.0000
    662 C          54.1681  162.1107   45.8413 C.3     110        0    0.0000
    663 H          56.1074  161.3911   45.1880 H       110        0    0.0000
    664 H          55.4071  160.4592   46.5068 H       110        0    0.0000
    665 H          54.1880  163.1774   46.0968 H       110        0    0.0000
    666 H          53.9357  162.0475   44.7710 H       110        0    0.0000
    667 C          53.0172  161.4188   46.6500 C.3     111        0    0.0000
    668 C          51.6390  161.9956   46.3081 C.3     111        0    0.0000
    669 H          53.0365  160.3419   46.4416 H       111        0    0.0000
    670 H          53.2185  161.5358   47.7221 H       111        0    0.0000
    671 H          50.8537  161.4150   46.8078 H       111        0    0.0000
    672 H          51.5578  163.0234   46.6829 H       111        0    0.0000
    673 C          51.3617  161.9971   44.7651 C.3     112        0    0.0000
    674 C          50.0211  162.6530   44.4165 C.3     112        0    0.0000
    675 H          52.1807  162.5233   44.2593 H       112        0    0.0000
    676 H          51.3801  160.9622   44.4015 H       112        0    0.0000
    677 H          50.1079  163.7446   44.4825 H       112        0    0.0000
    678 H          49.7470  162.4208   43.3799 H       112        0    0.0000
    679 C          48.8644  162.1800   45.3630 C.3     113        0    0.0000
    680 C          47.5660  162.9598   45.1280 C.3     113        0    0.0000
    681 H          48.6934  161.1081   45.2041 H       113        0    0.0000
    682 H          49.1897  162.2961   46.4043 H       113        0    0.0000
    683 H          47.4804  163.7759   45.8562 H       113        0    0.0000
    684 H          47.5809  163.4245   44.1343 H       113        0    0.0000
    685 C          46.2963  162.0472   45.2401 C.3     114        0    0.0000
    686 C          45.0318  162.7460   44.7286 C.3     114        0    0.0000
    687 H          46.4724  161.1252   44.6724 H       114        0    0.0000
    688 H          46.1648  161.7515   46.2884 H       114        0    0.0000
    689 H          44.7054  163.5071   45.4481 H       114        0    0.0000
    690 H          45.2460  163.2714   43.7897 H       114        0    0.0000
    691 C          43.8536  161.7404   44.4874 C.3     115        0    0.0000
    692 C          42.5819  162.4422   43.9984 C.3     115        0    0.0000
    693 H          44.1742  160.9893   43.7549 H       115        0    0.0000
    694 H          43.6509  161.2027   45.4219 H       115        0    0.0000
    695 H          42.2738  163.2086   44.7204 H       115        0    0.0000
    696 H          42.7789  162.9616   43.0524 H       115        0    0.0000
    697 C          41.3945  161.4407   43.7872 C.3     116        0    0.0000
    698 C          40.0292  162.1316   43.8752 C.3     116        0    0.0000
    699 H          41.5092  160.9576   42.8089 H       116        0    0.0000
    700 H          41.4634  160.6465   44.5408 H       116        0    0.0000
    701 H          39.9812  162.7565   44.7757 H       116        0    0.0000
    702 H          39.8913  162.8027   43.0184 H       116        0    0.0000
    703 C          38.8449  161.1051   43.9087 C.3     117        0    0.0000
    704 C          37.7885  161.4711   44.9570 C.3     117        0    0.0000
    705 H          38.3871  161.0608   42.9128 H       117        0    0.0000
    706 H          39.2487  160.1060   44.1146 H       117        0    0.0000
    707 H          38.2214  162.1426   45.7088 H       117        0    0.0000
    708 H          36.9631  162.0178   44.4843 H       117        0    0.0000
    709 C          37.2083  160.2081   45.6820 C.3     118        0    0.0000
    710 C          35.8522  159.7813   45.1092 C.3     118        0    0.0000
    711 H          37.9297  159.3865   45.5925 H       118        0    0.0000
    712 H          37.1121  160.4278   46.7525 H       118        0    0.0000
    713 H          35.0393  160.2410   45.6849 H       118        0    0.0000
    714 H          35.7498  160.1403   44.0776 H       118        0    0.0000
    715 C          35.6643  158.2251   45.1237 C.3     119        0    0.0000
    716 C          34.3112  157.7979   44.5445 C.3     119        0    0.0000
    717 H          36.4802  157.7651   44.5524 H       119        0    0.0000
    718 H          35.7616  157.8668   46.1561 H       119        0    0.0000
    719 H          34.2815  156.7081   44.4220 H       119        0    0.0000
    720 H          33.5047  158.0587   45.2410 H       119        0    0.0000
    721 C          34.0192  158.4702   43.1588 C.3     120        0    0.0000
    722 C          32.5587  158.2995   42.7266 C.3     120        0    0.0000
    723 H          34.2703  159.5362   43.2231 H       120        0    0.0000
    724 H          34.6877  158.0339   42.4062 H       120        0    0.0000
    725 H          32.4484  157.3887   42.1251 H       120        0    0.0000
    726 H          31.9177  158.1745   43.6081 H       120        0    0.0000
    727 C          32.0391  159.5214   41.8932 C.3     121        0    0.0000
    728 C          30.6760  159.2471   41.2484 C.3     121        0    0.0000
    729 H          31.9745  160.3966   42.5515 H       121        0    0.0000
    730 H          32.7792  159.7625   41.1201 H       121        0    0.0000
    731 H          29.9694  158.8811   42.0036 H       121        0    0.0000
    732 H          30.2551  160.1777   40.8480 H       121        0    0.0000
    733 C          30.7677  158.1947   40.0901 C.3     122        0    0.0000
    734 C          29.4339  158.0223   39.3550 C.3     122        0    0.0000
    735 H          31.5472  158.5109   39.3859 H       122        0    0.0000
    736 H          31.0928  157.2346   40.5096 H       122        0    0.0000
    737 H          29.5128  158.4178   38.3348 H       122        0    0.0000
    738 H          29.1907  156.9566   39.2619 H       122        0    0.0000
    739 C          28.2534  158.7476   40.0883 C.3     123        0    0.0000
    740 C          26.9917  158.8257   39.2216 C.3     123        0    0.0000
    741 H          28.0359  158.2142   41.0219 H       123        0    0.0000
    742 H          28.5789  159.7566   40.3704 H       123        0    0.0000
    743 H          27.2666  158.8763   38.1607 H       123        0    0.0000
    744 H          26.3914  157.9162   39.3484 H       123        0    0.0000
    745 C          26.1051  160.0696   39.5737 C.3     124        0    0.0000
    746 C          24.7499  160.0381   38.8585 C.3     124        0    0.0000
    747 H          25.9564  160.1017   40.6601 H       124        0    0.0000
    748 H          26.6519  160.9815   39.3034 H       124        0    0.0000
    749 H          24.8840  160.2435   37.7892 H       124        0    0.0000
    750 H          24.3079  159.0369   38.9340 H       124        0    0.0000
    751 C          23.7411  161.0817   39.4508 C.3     125        0    0.0000
    752 C          22.3771  161.0314   38.7536 C.3     125        0    0.0000
    753 H          23.6223  160.8888   40.5242 H       125        0    0.0000
    754 H          24.1747  162.0851   39.3571 H       125        0    0.0000
    755 H          22.4952  161.2300   37.6812 H       125        0    0.0000
    756 H          21.9461  160.0265   38.8424 H       125        0    0.0000
    757 C          21.3658  162.0695   39.3513 C.3     126        0    0.0000
    758 C          20.0060  162.0282   38.6455 C.3     126        0    0.0000
    759 H          21.2404  161.8651   40.4218 H       126        0    0.0000
    760 H          21.8009  163.0734   39.2711 H       126        0    0.0000
    761 H          20.1319  162.2282   37.5742 H       126        0    0.0000
    762 H          19.5688  161.0255   38.7296 H       126        0    0.0000
    763 C          18.9968  163.0708   39.2389 C.3     127        0    0.0000
    764 C          17.6371  163.0300   38.5327 C.3     127        0    0.0000
    765 H          18.8705  162.8706   40.3101 H       127        0    0.0000
    766 H          19.4341  164.0735   39.1552 H       127        0    0.0000
    767 H          17.7635  163.2298   37.4614 H       127        0    0.0000
    768 H          17.1996  162.0275   38.6167 H       127        0    0.0000
    769 C          16.6281  164.0730   39.1256 C.3     128        0    0.0000
    770 C          15.2669  164.0289   38.4227 C.3     128        0    0.0000
    771 H          16.5045  163.8754   40.1976 H       128        0    0.0000
    772 H          17.0642  165.0759   39.0384 H       128        0    0.0000
    773 H          15.3906  164.2262   37.3506 H       128        0    0.0000
    774 H          14.8307  163.0260   38.5102 H       128        0    0.0000
    775 C          14.2581  165.0721   39.0153 C.3     129        0    0.0000
    776 C          13.0303  165.2669   38.1189 C.3     129        0    0.0000
    777 H          13.9465  164.7359   40.0121 H       129        0    0.0000
    778 H          14.7784  166.0280   39.1536 H       129        0    0.0000
    779 H          13.3427  165.5891   37.1178 H       129        0    0.0000
    780 H          12.5018  164.3139   37.9924 H       129        0    0.0000
    781 C          12.0312  166.3252   38.7014 C.3     130        0    0.0000
    782 C          10.6058  166.1311   38.1727 C.3     130        0    0.0000
    783 H          12.0393  166.2540   39.7962 H       130        0    0.0000
    784 H          12.3928  167.3296   38.4484 H       130        0    0.0000
    785 H          10.5611  166.3903   37.1076 H       130        0    0.0000
    786 H          10.3154  165.0762   38.2525 H       130        0    0.0000
    787 C           9.5601  167.0033   38.9494 C.3     131        0    0.0000
    788 C           8.7680  167.9272   38.0177 C.3     131        0    0.0000
    789 H           8.8758  166.3373   39.4895 H       131        0    0.0000
    790 H          10.0872  167.5956   39.7075 H       131        0    0.0000
    791 H           8.3141  167.3443   37.2067 H       131        0    0.0000
    792 H           7.9433  168.3981   38.5670 H       131        0    0.0000
    793 C           9.6647  169.0505   37.3920 C.3     132        0    0.0000
    794 C           8.9986  170.4293   37.4574 C.3     132        0    0.0000
    795 H          10.6257  169.0715   37.9208 H       132        0    0.0000
    796 H           9.8845  168.7879   36.3497 H       132        0    0.0000
    797 H           9.1490  170.9650   36.5119 H       132        0    0.0000
    798 H           7.9150  170.3177   37.5873 H       132        0    0.0000
    799 C           9.5606  171.3055   38.6295 C.3     133        0    0.0000
    800 C          10.0712  172.6666   38.1440 C.3     133        0    0.0000
    801 H           8.7699  171.4453   39.3770 H       133        0    0.0000
    802 H          10.3697  170.7554   39.1258 H       133        0    0.0000
    803 H           9.6189  172.9145   37.1758 H       133        0    0.0000
    804 H           9.7673  173.4542   38.8446 H       133        0    0.0000
    805 C          11.6315  172.6972   37.9953 C.3     134        0    0.0000
    806 C          12.0773  173.3547   36.6846 C.3     134        0    0.0000
    807 H          12.0577  173.2362   38.8505 H       134        0    0.0000
    808 H          12.0121  171.6697   38.0492 H       134        0    0.0000
    809 H          11.2534  173.3462   35.9603 H       134        0    0.0000
    810 H          12.3323  174.4073   36.8595 H       134        0    0.0000
    811 C          13.3160  172.6336   36.0495 C.3     135        0    0.0000
    812 C          14.6438  173.2362   36.5213 C.3     135        0    0.0000
    813 H          13.2744  171.5677   36.3059 H       135        0    0.0000
    814 H          13.2408  172.6979   34.9569 H       135        0    0.0000
    815 H          15.3365  173.3287   35.6756 H       135        0    0.0000
    816 H          14.4807  174.2501   36.9073 H       135        0    0.0000
    817 C          15.3240  172.3733   37.6394 C.3     136        0    0.0000
    818 C          16.8043  172.1051   37.3463 C.3     136        0    0.0000
    819 H          15.2188  172.8926   38.6000 H       136        0    0.0000
    820 H          14.7812  171.4245   37.7330 H       136        0    0.0000
    821 H          16.9886  172.1534   36.2659 H       136        0    0.0000
    822 H          17.4258  172.8830   37.8070 H       136        0    0.0000
    823 C          17.2709  170.7056   37.8765 C.3     137        0    0.0000
    824 C          18.7871  170.5156   37.7581 C.3     137        0    0.0000
    825 H          16.9595  170.6023   38.9234 H       137        0    0.0000
    826 H          16.7485  169.9221   37.3137 H       137        0    0.0000
    827 H          19.0893  170.5502   36.7040 H       137        0    0.0000
    828 H          19.3098  171.3375   38.2628 H       137        0    0.0000
    829 C          19.2657  169.1570   38.3766 C.3     138        0    0.0000
    830 C          20.7921  169.0195   38.3656 C.3     138        0    0.0000
    831 H          18.8888  169.0841   39.4043 H       138        0    0.0000
    832 H          18.8097  168.3325   37.8146 H       138        0    0.0000
    833 H          21.1662  169.0614   37.3352 H       138        0    0.0000
    834 H          21.2494  169.8607   38.9012 H       138        0    0.0000
    835 C          21.2728  167.6803   39.0236 C.3     139        0    0.0000
    836 C          22.7993  167.5439   39.0149 C.3     139        0    0.0000
    837 H          20.8971  167.6375   40.0535 H       139        0    0.0000
    838 H          20.8169  166.8391   38.4869 H       139        0    0.0000
    839 H          23.1746  167.5830   37.9848 H       139        0    0.0000
    840 H          23.2553  168.3871   39.5485 H       139        0    0.0000
    841 C          23.2802  166.2071   39.6776 C.3     140        0    0.0000
    842 C          24.8069  166.0726   39.6725 C.3     140        0    0.0000
    843 H          22.9024  166.1667   40.7068 H       140        0    0.0000
    844 H          22.8265  165.3639   39.1422 H       140        0    0.0000
    845 H          25.1830  166.0947   38.6421 H       140        0    0.0000
    846 H          25.2614  166.9253   40.1921 H       140        0    0.0000
    847 C          25.2889  164.7478   40.3580 C.3     141        0    0.0000
    848 C          26.8042  164.7306   40.5875 C.3     141        0    0.0000
    849 H          24.7624  164.6322   41.3135 H       141        0    0.0000
    850 H          24.9938  163.8975   39.7308 H       141        0    0.0000
    851 H          27.0386  165.1310   41.5816 H       141        0    0.0000
    852 H          27.1759  163.6986   40.5679 H       141        0    0.0000
    853 C          27.5777  165.5669   39.5106 C.3     142        0    0.0000
    854 C          29.0980  165.4514   39.6675 C.3     142        0    0.0000
    855 H          27.2754  165.2248   38.5131 H       142        0    0.0000
    856 H          27.2700  166.6169   39.5903 H       142        0    0.0000
    857 H          29.6018  165.9751   38.8456 H       142        0    0.0000
    858 H          29.4186  165.9400   40.5959 H       142        0    0.0000
    859 C          29.5815  163.9603   39.6881 C.3     143        0    0.0000
    860 C          31.1097  163.8455   39.7100 C.3     143        0    0.0000
    861 H          29.1543  163.4622   40.5673 H       143        0    0.0000
    862 H          29.1781  163.4455   38.8073 H       143        0    0.0000
    863 H          31.4234  163.1504   40.4986 H       143        0    0.0000
    864 H          31.4692  163.4284   38.7611 H       143        0    0.0000
    865 C          31.8061  165.2293   39.9498 C.3     144        0    0.0000
    866 C          33.3339  165.1124   39.9845 C.3     144        0    0.0000
    867 H          31.4997  165.9217   39.1559 H       144        0    0.0000
    868 H          31.4395  165.6508   40.8940 H       144        0    0.0000
    869 H          33.7879  166.1111   39.9762 H       144        0    0.0000
    870 H          33.6531  164.6291   40.9162 H       144        0    0.0000
    871 C          33.8947  164.2923   38.7719 C.3     145        0    0.0000
    872 C          35.4042  164.0512   38.8822 C.3     145        0    0.0000
    873 H          33.3637  163.3339   38.7174 H       145        0    0.0000
    874 H          33.6667  164.8320   37.8443 H       145        0    0.0000
    875 H          35.6030  162.9877   39.0634 H       145        0    0.0000
    876 H          35.8961  164.3069   37.9355 H       145        0    0.0000
    877 C          36.0574  164.8907   40.0337 C.3     146        0    0.0000
    878 C          37.5516  164.5905   40.1958 C.3     146        0    0.0000
    879 H          35.9087  165.9569   39.8222 H       146        0    0.0000
    880 H          35.5273  164.6785   40.9705 H       146        0    0.0000
    881 H          38.0212  165.3509   40.8319 H       146        0    0.0000
    882 H          37.6889  163.6272   40.7027 H       146        0    0.0000
    883 C          38.3019  164.5489   38.8201 C.3     147        0    0.0000
    884 C          39.7913  164.2248   38.9803 C.3     147        0    0.0000
    885 H          37.8211  163.8009   38.1775 H       147        0    0.0000
    886 H          38.1794  165.5182   38.3211 H       147        0    0.0000
    887 H          39.9205  163.1655   39.2348 H       147        0    0.0000
    888 H          40.3158  164.3867   38.0304 H       147        0    0.0000
    889 C          40.4733  165.0978   40.0893 C.3     148        0    0.0000
    890 C          41.9957  165.1614   39.9241 C.3     148        0    0.0000
    891 H          40.0487  166.1088   40.0545 H       148        0    0.0000
    892 H          40.2186  164.6828   41.0724 H       148        0    0.0000
    893 H          42.2504  165.5554   38.9324 H       148        0    0.0000
    894 H          42.4252  165.8543   40.6583 H       148        0    0.0000
    895 C          42.6714  163.7576   40.0988 C.3     149        0    0.0000
    896 C          44.0807  163.7126   39.4982 C.3     149        0    0.0000
    897 H          42.7100  163.5144   41.1678 H       149        0    0.0000
    898 H          42.0364  162.9983   39.6257 H       149        0    0.0000
    899 H          44.2288  162.7702   38.9564 H       149        0    0.0000
    900 H          44.2034  164.5199   38.7656 H       149        0    0.0000
    901 C          45.1967  163.8479   40.5908 C.3     150        0    0.0000
    902 C          46.5647  163.3768   40.0853 C.3     150        0    0.0000
    903 H          45.2541  164.8961   40.9097 H       150        0    0.0000
    904 H          44.9007  163.2661   41.4726 H       150        0    0.0000
    905 H          46.5373  162.3008   39.8733 H       150        0    0.0000
    906 H          46.8096  163.8779   39.1406 H       150        0    0.0000
    907 C          47.7094  163.6592   41.1185 C.3     151        0    0.0000
    908 C          48.9893  164.1646   40.4437 C.3     151        0    0.0000
    909 H          47.3528  164.3964   41.8486 H       151        0    0.0000
    910 H          47.9170  162.7379   41.6768 H       151        0    0.0000
    911 H          48.7481  164.6283   39.4792 H       151        0    0.0000
    912 H          49.4570  164.9429   41.0593 H       151        0    0.0000
    913 C          50.0290  163.0156   40.2060 C.3     152        0    0.0000
    914 C          51.4598  163.5469   40.0655 C.3     152        0    0.0000
    915 H          49.9710  162.3077   41.0420 H       152        0    0.0000
    916 H          49.7432  162.4613   39.3034 H       152        0    0.0000
    917 H          51.6185  163.9368   39.0524 H       152        0    0.0000
    918 H          51.6189  164.3857   40.7544 H       152        0    0.0000
    919 C          52.5345  162.4433   40.3563 C.3     153        0    0.0000
    920 C          53.9388  163.0319   40.5314 C.3     153        0    0.0000
    921 H          52.2416  161.8938   41.2595 H       153        0    0.0000
    922 H          52.5301  161.7195   39.5318 H       153        0    0.0000
    923 H          54.4962  162.9617   39.5891 H       153        0    0.0000
    924 H          53.8714  164.0985   40.7788 H       153        0    0.0000
    925 C          54.7526  162.3028   41.6555 C.3     154        0    0.0000
    926 C          56.2176  162.7514   41.6958 C.3     154        0    0.0000
    927 H          54.2727  162.4979   42.6226 H       154        0    0.0000
    928 H          54.6951  161.2202   41.4880 H       154        0    0.0000
    929 H          56.8347  161.9785   42.1705 H       154        0    0.0000
    930 H          56.6005  162.8777   40.6756 H       154        0    0.0000
    931 C          56.4054  164.0979   42.4764 C.3     155        0    0.0000
    932 C          57.8825  164.4693   42.6469 C.3     155        0    0.0000
    933 H          55.8767  164.8949   41.9389 H       155        0    0.0000
    934 H          55.9244  164.0074   43.4582 H       155        0    0.0000
    935 H          58.0420  165.5171   42.3638 H       155        0    0.0000
    936 H          58.1736  164.3798   43.7008 H       155        0    0.0000
    937 C          58.8264  163.5633   41.7833 C.3     156        0    0.0000
    938 C          60.3012  163.7304   42.1654 C.3     156        0    0.0000
    939 H          58.5221  162.5165   41.9069 H       156        0    0.0000
    940 H          58.6819  163.8104   40.7242 H       156        0    0.0000
    941 H          60.7881  164.4399   41.4849 H       156        0    0.0000
    942 H          60.3827  164.1547   43.1739 H       156        0    0.0000
    943 C          61.0833  162.3725   42.1238 C.3     157        0    0.0000
    944 C          62.5978  162.5777   42.0088 C.3     157        0    0.0000
    945 H          60.8489  161.8015   43.0308 H       157        0    0.0000
    946 H          60.7185  161.7802   41.2755 H       157        0    0.0000
    947 H          63.0439  161.7654   41.4218 H       157        0    0.0000
    948 H          62.8113  163.5095   41.4705 H       157        0    0.0000
    949 C          63.2981  162.6320   43.4103 C.3     158        0    0.0000
    950 C          64.7710  163.0433   43.3081 C.3     158        0    0.0000
    951 H          62.7540  163.3376   44.0504 H       158        0    0.0000
    952 H          63.2148  161.6467   43.8856 H       158        0    0.0000
    953 H          64.8805  163.8779   42.6045 H       158        0    0.0000
    954 H          65.1297  163.4021   44.2808 H       158        0    0.0000
    955 C          65.6865  161.8614   42.8365 C.3     159        0    0.0000
    956 C          67.1728  162.2350   42.8549 C.3     159        0    0.0000
    957 H          65.5083  160.9953   43.4858 H       159        0    0.0000
    958 H          65.3860  161.5635   41.8243 H       159        0    0.0000
    959 H          67.4957  162.5431   41.8527 H       159        0    0.0000
    960 H          67.3365  163.0946   43.5166 H       159        0    0.0000
    961 C          68.0778  161.0484   43.3348 C.3     160        0    0.0000
    962 C          69.5599  161.4346   43.3921 C.3     160        0    0.0000
    963 H          67.7359  160.7208   44.3244 H       160        0    0.0000
    964 H          67.9365  160.1987   42.6555 H       160        0    0.0000
    965 H          69.9070  161.7429   42.3981 H       160        0    0.0000
    966 H          69.6985  162.2970   44.0558 H       160        0    0.0000
    967 C          70.4616  160.2567   43.8992 C.3     161        0    0.0000
    968 C          71.9408  160.6500   43.9783 C.3     161        0    0.0000
    969 H          70.1040  159.9372   44.8859 H       161        0    0.0000
    970 H          70.3357  159.3998   43.2258 H       161        0    0.0000
    971 H          72.3019  160.9569   42.9889 H       161        0    0.0000
    972 H          72.0650  161.5153   44.6413 H       161        0    0.0000
    973 C          72.8399  159.4781   44.5033 C.3     162        0    0.0000
    974 C          74.3314  159.8290   44.4666 C.3     162        0    0.0000
    975 H          72.5366  159.2315   45.5283 H       162        0    0.0000
    976 H          72.6483  158.5856   43.8948 H       162        0    0.0000
    977 H          74.6278  160.1054   43.4471 H       162        0    0.0000
    978 H          74.5279  160.7031   45.0997 H       162        0    0.0000
    979 C          75.2332  158.6415   44.9506 C.3     163        0    0.0000
    980 C          76.7270  158.9717   44.8587 C.3     163        0    0.0000
    981 H          74.9657  158.3933   45.9851 H       163        0    0.0000
    982 H          75.0059  157.7553   44.3451 H       163        0    0.0000
    983 H          76.9916  159.2338   43.8268 H       163        0    0.0000
    984 H          76.9569  159.8494   45.4755 H       163        0    0.0000
    985 C          77.6292  157.7770   45.3238 C.3     164        0    0.0000
    986 C          79.1052  158.1740   45.4382 C.3     164        0    0.0000
    987 H          77.2618  157.4121   46.2910 H       164        0    0.0000
    988 H          77.5161  156.9503   44.6116 H       164        0    0.0000
    989 H          79.4316  158.6771   44.5196 H       164        0    0.0000
    990 H          79.2390  158.8930   46.2558 H       164        0    0.0000
    991 C          80.0346  156.9380   45.6950 C.3     165        0    0.0000
    992 C          81.5163  157.3262   45.7465 C.3     165        0    0.0000
    993 H          79.7374  156.4619   46.6377 H       165        0    0.0000
    994 H          79.8668  156.1986   44.9021 H       165        0    0.0000
    995 H          81.7958  157.8657   44.8331 H       165        0    0.0000
    996 H          81.6969  158.0109   46.5845 H       165        0    0.0000
    997 C          82.4524  156.0785   45.9028 C.3     166        0    0.0000
    998 C          83.8703  156.4667   46.3363 C.3     166        0    0.0000
    999 H          82.0091  155.3936   46.6363 H       166        0    0.0000
   1000 H          82.4853  155.5393   44.9480 H       166        0    0.0000
   1001 H          83.8639  157.4635   46.7943 H       166        0    0.0000
   1002 H          84.2334  155.7703   47.1022 H       166        0    0.0000
   1003 C          84.8788  156.4684   45.1361 C.3     167        0    0.0000
   1004 C          86.0794  157.3873   45.3877 C.3     167        0    0.0000
   1005 H          85.2216  155.4411   44.9608 H       167        0    0.0000
   1006 H          84.3482  156.7827   44.2288 H       167        0    0.0000
   1007 H          86.6647  157.5021   44.4670 H       167        0    0.0000
   1008 H          85.7335  158.3899   45.6682 H       167        0    0.0000
   1009 C          87.0182  156.8420   46.5186 C.3     168        0    0.0000
   1010 C          88.4992  156.9203   46.1321 C.3     168        0    0.0000
   1011 H          86.8378  157.4166   47.4356 H       168        0    0.0000
   1012 H          86.7411  155.8034   46.7380 H       168        0    0.0000
   1013 H          88.6397  157.6519   45.3268 H       168        0    0.0000
   1014 H          89.0925  157.2728   46.9849 H       168        0    0.0000
   1015 C          89.0643  155.5359   45.6613 C.3     169        0    0.0000
   1016 C          90.3827  155.1797   46.3570 C.3     169        0    0.0000
   1017 H          88.3131  154.7614   45.8596 H       169        0    0.0000
   1018 H          89.2084  155.5640   44.5741 H       169        0    0.0000
   1019 H          91.0587  154.6827   45.6503 H       169        0    0.0000
   1020 H          90.8910  156.0930   46.6901 H       169        0    0.0000
   1021 C          90.1669  154.2416   47.5944 C.3     170        0    0.0000
   1022 C          91.1552  154.5383   48.7276 C.3     170        0    0.0000
   1023 H          89.1369  154.3605   47.9529 H       170        0    0.0000
   1024 H          90.2690  153.1987   47.2696 H       170        0    0.0000
   1025 H          92.0046  153.8459   48.6768 H       170        0    0.0000
   1026 H          91.5657  155.5494   48.6137 H       170        0    0.0000
   1027 C          90.4903  154.4194   50.1422 C.3     171        0    0.0000
   1028 C          90.5324  152.9868   50.6853 C.3     171        0    0.0000
   1029 H          91.0048  155.0988   50.8330 H       171        0    0.0000
   1030 H          89.4515  154.7659   50.0749 H       171        0    0.0000
   1031 H          91.4010  152.4552   50.2772 H       171        0    0.0000
   1032 H          90.6553  153.0012   51.7753 H       171        0    0.0000
   1033 C          89.2352  152.1798   50.3336 C.3     172        0    0.0000
   1034 C          89.0121  150.9968   51.2821 C.3     172        0    0.0000
   1035 H          88.3748  152.8595   50.3712 H       172        0    0.0000
   1036 H          89.3101  151.8234   49.2988 H       172        0    0.0000
   1037 H          88.4656  151.3275   52.1740 H       172        0    0.0000
   1038 H          88.3893  150.2363   50.7950 H       172        0    0.0000
   1039 C          90.3595  150.3338   51.7321 C.3     173        0    0.0000
   1040 C          90.1480  149.2562   52.8013 C.3     173        0    0.0000
   1041 H          90.8511  149.8997   50.8526 H       173        0    0.0000
   1042 H          91.0283  151.1156   52.1131 H       173        0    0.0000
   1043 H          89.3373  149.5523   53.4785 H       173        0    0.0000
   1044 H          89.8375  148.3152   52.3306 H       173        0    0.0000
   1045 C          91.4424  148.9956   53.6463 C.3     174        0    0.0000
   1046 C          91.1468  148.8992   55.1470 C.3     174        0    0.0000
   1047 H          91.9131  148.0688   53.2953 H       174        0    0.0000
   1048 H          92.1584  149.8045   53.4551 H       174        0    0.0000
   1049 H          90.0858  148.6709   55.3075 H       174        0    0.0000
   1050 H          91.7172  148.0737   55.5906 H       174        0    0.0000
   1051 C          91.4995  150.2234   55.9083 C.3     175        0    0.0000
   1052 C          92.5014  149.9910   57.0446 C.3     175        0    0.0000
   1053 H          91.9061  150.9464   55.1903 H       175        0    0.0000
   1054 H          90.5747  150.6600   56.3055 H       175        0    0.0000
   1055 H          92.2369  150.6090   57.9116 H       175        0    0.0000
   1056 H          92.4573  148.9465   57.3772 H       175        0    0.0000
   1057 C          93.9724  150.3235   56.6170 C.3     176        0    0.0000
   1058 C          94.6526  151.2978   57.5850 C.3     176        0    0.0000
   1059 H          94.5441  149.3888   56.5605 H       176        0    0.0000
   1060 H          93.9594  150.7464   55.6048 H       176        0    0.0000
   1061 H          93.8963  151.8437   58.1626 H       176        0    0.0000
   1062 H          95.2629  150.7440   58.3092 H       176        0    0.0000
   1063 C          95.5655  152.3332   56.8420 C.3     177        0    0.0000
   1064 C          97.0435  151.9287   56.8688 C.3     177        0    0.0000
   1065 H          95.2203  152.4288   55.8050 H       177        0    0.0000
   1066 H          95.4363  153.3175   57.3090 H       177        0    0.0000
   1067 H          97.5611  152.4485   57.6845 H       177        0    0.0000
   1068 H          97.1359  150.8544   57.0710 H       177        0    0.0000
   1069 C          97.7729  152.2535   55.5196 C.3     178        0    0.0000
   1070 C          99.1940  151.6812   55.4752 C.3     178        0    0.0000
   1071 H          97.1787  151.8499   54.6904 H       178        0    0.0000
   1072 H          97.8014  153.3420   55.3862 H       178        0    0.0000
   1073 H          99.7708  152.0392   56.3370 H       178        0    0.0000
   1074 H          99.1615  150.5872   55.5504 H       178        0    0.0000
   1075 C          99.9522  152.0751   54.1609 C.3     179        0    0.0000
   1076 C         101.4100  151.6020   54.1673 C.3     179        0    0.0000
   1077 H          99.4207  151.6441   53.3034 H       179        0    0.0000
   1078 H          99.9109  153.1649   54.0419 H       179        0    0.0000
   1079 H         101.9140  151.9489   55.0780 H       179        0    0.0000
   1080 H         101.4497  150.5058   54.1834 H       179        0    0.0000
   1081 C         102.2077  152.1183   52.9205 C.3     180        0    0.0000
   1082 C         103.6890  151.7288   52.9766 C.3     180        0    0.0000
   1083 H         101.7460  151.7116   52.0122 H       180        0    0.0000
   1084 H         102.1075  153.2092   52.8635 H       180        0    0.0000
   1085 H         103.7974  150.6436   52.8582 H       180        0    0.0000
   1086 H         104.2316  152.1923   52.1433 H       180        0    0.0000
   1087 C         104.3662  152.1604   54.3229 C.3     181        0    0.0000
   1088 C         105.8298  151.7132   54.4064 C.3     181        0    0.0000
   1089 H         104.3001  153.2513   54.4181 H       181        0    0.0000
   1090 H         103.7950  151.7361   55.1579 H       181        0    0.0000
   1091 H         106.2868  152.0921   55.3289 H       181        0    0.0000
   1092 H         105.8866  150.6187   54.4531 H       181        0    0.0000
   1093 C         106.6738  152.2112   53.1829 C.3     182        0    0.0000
   1094 C         108.1799  152.0350   53.4059 C.3     182        0    0.0000
   1095 H         106.3591  151.6598   52.2882 H       182        0    0.0000
   1096 H         106.4418  153.2677   52.9997 H       182        0    0.0000
   1097 H         108.3594  151.2873   54.1884 H       182        0    0.0000
   1098 H         108.6536  151.6549   52.4923 H       182        0    0.0000
   1099 C         108.8803  153.3756   53.8179 C.3     183        0    0.0000
   1100 C         110.3966  153.3298   53.5995 C.3     183        0    0.0000
   1101 H         108.4413  154.1968   53.2378 H       183        0    0.0000
   1102 H         108.6582  153.5811   54.8725 H       183        0    0.0000
   1103 H         110.8520  152.5950   54.2750 H       183        0    0.0000
   1104 H         110.6196  152.9989   52.5776 H       183        0    0.0000
   1105 C         111.0736  154.7234   53.8384 C.3     184        0    0.0000
   1106 C         112.6036  154.6329   53.8422 C.3     184        0    0.0000
   1107 H         110.7398  155.4173   53.0569 H       184        0    0.0000
   1108 H         110.7185  155.1300   54.7934 H       184        0    0.0000
   1109 H         112.9310  153.8263   54.5099 H       184        0    0.0000
   1110 H         112.9679  154.3788   52.8390 H       184        0    0.0000
   1111 C         113.2769  155.9725   54.3000 C.3     185        0    0.0000
   1112 C         114.7936  155.8319   54.4697 C.3     185        0    0.0000
   1113 H         113.0516  156.7519   53.5615 H       185        0    0.0000
   1114 H         112.8207  156.2926   55.2450 H       185        0    0.0000
   1115 H         115.2654  155.6464   53.4968 H       185        0    0.0000
   1116 H         115.2178  156.7686   54.8520 H       185        0    0.0000
   1117 C         115.1767  154.6677   55.4471 C.3     186        0    0.0000
   1118 C         116.6937  154.5187   55.6067 C.3     186        0    0.0000
   1119 H         114.7127  154.8581   56.4228 H       186        0    0.0000
   1120 H         114.7445  153.7326   55.0699 H       186        0    0.0000
   1121 H         116.9726  154.6196   56.6629 H       186        0    0.0000
   1122 H         117.0084  153.5159   55.2921 H       186        0    0.0000
   1123 C         117.4863  155.5822   54.7710 C.3     187        0    0.0000
   1124 C         118.9937  155.5289   55.0432 C.3     187        0    0.0000
   1125 H         117.2903  155.4120   53.7051 H       187        0    0.0000
   1126 H         117.0964  156.5800   55.0077 H       187        0    0.0000
   1127 H         119.1819  155.5538   56.1237 H       187        0    0.0000
   1128 H         119.4096  154.5838   54.6726 H       187        0    0.0000
   1129 C         119.7615  156.7177   54.3690 C.3     188        0    0.0000
   1130 C         121.2669  156.6724   54.6530 C.3     188        0    0.0000
   1131 H         119.5817  156.6866   53.2872 H       188        0    0.0000
   1132 H         119.3385  157.6628   54.7316 H       188        0    0.0000
   1133 H         121.6374  157.6798   54.8798 H       188        0    0.0000
   1134 H         121.4641  156.0572   55.5397 H       188        0    0.0000
   1135 C         122.0822  156.0942   53.4454 C.3     189        0    0.0000
   1136 C         123.5910  156.0838   53.7150 C.3     189        0    0.0000
   1137 H         121.7305  155.0763   53.2363 H       189        0    0.0000
   1138 H         121.8638  156.6927   52.5523 H       189        0    0.0000
   1139 H         123.9882  155.0687   53.5916 H       189        0    0.0000
   1140 H         124.1083  156.7157   52.9824 H       189        0    0.0000
   1141 C         123.9404  156.5915   55.1564 C.3     190        0    0.0000
   1142 C         125.4486  156.5731   55.4289 C.3     190        0    0.0000
   1143 H         123.5487  157.6090   55.2776 H       190        0    0.0000
   1144 H         123.4181  155.9635   55.8887 H       190        0    0.0000
   1145 H         125.9437  157.3684   54.8581 H       190        0    0.0000
   1146 H         125.6418  156.7791   56.4890 H       190        0    0.0000
   1147 C         126.1034  155.1991   55.0537 C.3     191        0    0.0000
   1148 C         127.6249  155.2113   55.2378 C.3     191        0    0.0000
   1149 H         125.6557  154.4129   55.6741 H       191        0    0.0000
   1150 H         125.8523  154.9603   54.0128 H       191        0    0.0000
   1151 H         127.9361  154.3587   55.8541 H       191        0    0.0000
   1152 H         128.1222  155.0961   54.2667 H       191        0    0.0000
   1153 C         128.1313  156.5332   55.9112 C.3     192        0    0.0000
   1154 C         129.6483  156.5294   56.1301 C.3     192        0    0.0000
   1155 H         127.8444  157.3837   55.2804 H       192        0    0.0000
   1156 H         127.6133  156.6628   56.8695 H       192        0    0.0000
   1157 H         130.0225  155.4984   56.1525 H       192        0    0.0000
   1158 H         130.1505  157.0287   55.2921 H       192        0    0.0000
   1159 C         130.0579  157.2449   57.4634 C.3     193        0    0.0000
   1160 C         131.5774  157.2789   57.6612 C.3     193        0    0.0000
   1161 H         129.6568  158.2659   57.4545 H       193        0    0.0000
   1162 H         129.5806  156.7262   58.3041 H       193        0    0.0000
   1163 H         131.8300  157.9016   58.5283 H       193        0    0.0000
   1164 H         131.9511  156.2705   57.8780 H       193        0    0.0000
   1165 C         132.3280  157.8363   56.4029 C.3     194        0    0.0000
   1166 C         133.8512  157.7477   56.5486 C.3     194        0    0.0000
   1167 H         132.0014  157.2747   55.5188 H       194        0    0.0000
   1168 H         132.0254  158.8786   56.2436 H       194        0    0.0000
   1169 H         134.2545  157.0122   55.8415 H       194        0    0.0000
   1170 H         134.3099  158.7117   56.2963 H       194        0    0.0000
   1171 C         134.2867  157.3451   57.9997 C.3     195        0    0.0000
   1172 C         135.8096  157.2481   58.1432 C.3     195        0    0.0000
   1173 H         133.8886  158.0840   58.7061 H       195        0    0.0000
   1174 H         133.8229  156.3841   58.2543 H       195        0    0.0000
   1175 H         136.2545  158.2506   58.1171 H       195        0    0.0000
   1176 H         136.0688  156.8136   59.1166 H       195        0    0.0000
   1177 C         136.4586  156.3778   57.0124 C.3     196        0    0.0000
   1178 C         137.9837  156.2998   57.1425 C.3     196        0    0.0000
   1179 H         136.0260  155.3703   57.0492 H       196        0    0.0000
   1180 H         136.1854  156.8025   56.0384 H       196        0    0.0000
   1181 H         138.3021  155.2524   57.2140 H       196        0    0.0000
   1182 H         138.4595  156.7131   56.2445 H       196        0    0.0000
   1183 C         138.5133  157.0757   58.3975 C.3     197        0    0.0000
   1184 C         140.0393  157.2186   58.3908 C.3     197        0    0.0000
   1185 H         138.0429  158.0664   58.4252 H       197        0    0.0000
   1186 H         138.1889  156.5475   59.3027 H       197        0    0.0000
   1187 H         140.4934  156.4330   59.0074 H       197        0    0.0000
   1188 H         140.4253  157.0828   57.3729 H       197        0    0.0000
   1189 C         140.5076  158.6154   58.9267 C.3     198        0    0.0000
   1190 C         141.9851  158.8880   58.6242 C.3     198        0    0.0000
   1191 H         139.8812  159.3952   58.4760 H       198        0    0.0000
   1192 H         140.3314  158.6562   60.0088 H       198        0    0.0000
   1193 H         142.6208  158.2317   59.2315 H       198        0    0.0000
   1194 H         142.2034  158.6548   57.5746 H       198        0    0.0000
   1195 C         142.3838  160.3780   58.9042 C.3     199        0    0.0000
   1196 C         143.8859  160.6216   58.7214 C.3     199        0    0.0000
   1197 H         141.8125  161.0294   58.2313 H       199        0    0.0000
   1198 H         142.0821  160.6387   59.9263 H       199        0    0.0000
   1199 H         144.4556  159.7707   59.1150 H       199        0    0.0000
   1200 H         144.1277  160.6959   57.6539 H       199        0    0.0000
   1201 C         144.3678  161.9284   59.4408 C.3     200        0    0.0000
   1202 C         145.8957  162.0170   59.5223 C.3     200        0    0.0000
   1203 H         143.9689  162.7965   58.9015 H       200        0    0.0000
   1204 H         143.9350  161.9574   60.4485 H       200        0    0.0000
   1205 H         146.3235  162.0746   58.5138 H       200        0    0.0000
   1206 H         146.1919  162.9360   60.0432 H       200        0    0.0000
   1207 C         146.5230  160.7890   60.2679 C.3     201        0    0.0000
   1208 C         148.0519  160.8707   60.3373 C.3     201        0    0.0000
   1209 H         146.1027  160.7373   61.2799 H       201        0    0.0000
   1210 H         146.2185  159.8694   59.7530 H       201        0    0.0000
   1211 H         148.4397  160.0974   61.0121 H       201        0    0.0000
   1212 H         148.4845  160.6721   59.3489 H       201        0    0.0000
   1213 C         148.5500  162.2714   60.8348 C.3     202        0    0.0000
   1214 C         150.0792  162.3732   60.8474 C.3     202        0    0.0000
   1215 H         148.1266  163.0481   60.1860 H       202        0    0.0000
   1216 H         148.1528  162.4509   61.8415 H       202        0    0.0000
   1217 H         150.4103  163.1500   60.1471 H       202        0    0.0000
   1218 H         150.4279  162.6765   61.8423 H       202        0    0.0000
   1219 C         150.7679  161.0187   60.4618 C.3     203        0    0.0000
   1220 C         152.2771  161.1754   60.2452 C.3     203        0    0.0000
   1221 H         150.5759  160.2859   61.2554 H       203        0    0.0000
   1222 H         150.2958  160.6284   59.5517 H       203        0    0.0000
   1223 H         152.8143  160.3507   60.7297 H       203        0    0.0000
   1224 H         152.5114  161.1183   59.1750 H       203        0    0.0000
   1225 C         152.8205  162.5332   60.8097 C.3     204        0    0.0000
   1226 C         154.2866  162.7736   60.4333 C.3     204        0    0.0000
   1227 H         152.1954  163.3502   60.4283 H       204        0    0.0000
   1228 H         152.7074  162.5331   61.9009 H       204        0    0.0000
   1229 H         154.8302  163.1950   61.2879 H       204        0    0.0000
   1230 H         154.7733  161.8212   60.1890 H       204        0    0.0000
   1231 C         154.4348  163.7447   59.2116 C.3     205        0    0.0000
   1232 C         155.9017  164.0306   58.8715 C.3     205        0    0.0000
   1233 H         153.9270  163.3030   58.3452 H       205        0    0.0000
   1234 H         153.9119  164.6818   59.4393 H       205        0    0.0000
   1235 H         156.0957  163.7974   57.8172 H       205        0    0.0000
   1236 H         156.1171  165.0982   59.0028 H       205        0    0.0000
   1237 C         156.8904  163.2023   59.7625 C.3     206        0    0.0000
   1238 C         158.3446  163.6556   59.5921 C.3     206        0    0.0000
   1239 H         156.5866  163.2995   60.8121 H       206        0    0.0000
   1240 H         156.7947  162.1405   59.5038 H       206        0    0.0000
   1241 H         158.6574  163.5316   58.5479 H       206        0    0.0000
   1242 H         158.4350  164.7242   59.8233 H       206        0    0.0000
   1243 C         159.3284  162.8544   60.5128 C.3     207        0    0.0000
   1244 C         160.7876  163.2773   60.3106 C.3     207        0    0.0000
   1245 H         159.0348  163.0045   61.5592 H       207        0    0.0000
   1246 H         159.2147  161.7834   60.3043 H       207        0    0.0000
   1247 H         161.0760  163.1431   59.2607 H       207        0    0.0000
   1248 H         160.9045  164.3447   60.5355 H       207        0    0.0000
   1249 C         161.7738  162.4595   61.2140 C.3     208        0    0.0000
   1250 C         163.2324  162.8867   61.0164 C.3     208        0    0.0000
   1251 H         161.4825  162.5900   62.2637 H       208        0    0.0000
   1252 H         161.6601  161.3925   60.9858 H       208        0    0.0000
   1253 H         163.5315  162.7321   59.9723 H       208        0    0.0000
   1254 H         163.3410  163.9593   61.2196 H       208        0    0.0000
   1255 C         164.2147  162.0942   61.9461 C.3     209        0    0.0000
   1256 C         165.6730  162.5235   61.7507 C.3     209        0    0.0000
   1257 H         163.9143  162.2471   62.9901 H       209        0    0.0000
   1258 H         164.1076  161.0218   61.7413 H       209        0    0.0000
   1259 H         165.9740  162.3688   60.7071 H       209        0    0.0000
   1260 H         165.7797  163.5964   61.9535 H       209        0    0.0000
   1261 C         166.6550  161.7330   62.6824 C.3     210        0    0.0000
   1262 C         168.1125  162.1672   62.4919 C.3     210        0    0.0000
   1263 H         166.3509  161.8837   63.7256 H       210        0    0.0000
   1264 H         166.5519  160.6605   62.4760 H       210        0    0.0000
   1265 H         168.3965  162.0781   61.4360 H       210        0    0.0000
   1266 H         168.2283  163.2243   62.7613 H       210        0    0.0000
   1267 C         169.1043  161.3140   63.3556 C.3     211        0    0.0000
   1268 C         170.5590  161.7654   63.1853 C.3     211        0    0.0000
   1269 H         168.8085  161.3875   64.4095 H       211        0    0.0000
   1270 H         169.0022  160.2590   63.0726 H       211        0    0.0000
   1271 H         171.2082  161.2102   63.8736 H       211        0    0.0000
   1272 H         170.9074  161.5370   62.1704 H       211        0    0.0000
   1273 C         170.7394  163.3003   63.4480 C.3     212        0    0.0000
   1274 C         172.2104  163.7284   63.4027 C.3     212        0    0.0000
   1275 H         170.1623  163.8574   62.6995 H       212        0    0.0000
   1276 H         170.3063  163.5450   64.4258 H       212        0    0.0000
   1277 H         172.6387  163.4996   62.4190 H       212        0    0.0000
   1278 H         172.2904  164.8144   63.5363 H       212        0    0.0000
   1279 C         173.0697  163.0191   64.5054 C.3     213        0    0.0000
   1280 C         174.4528  163.6599   64.6655 C.3     213        0    0.0000
   1281 H         172.5251  163.0570   65.4569 H       213        0    0.0000
   1282 H         173.1744  161.9586   64.2444 H       213        0    0.0000
   1283 H         175.0157  163.1472   65.4554 H       213        0    0.0000
   1284 H         175.0308  163.5433   63.7403 H       213        0    0.0000
   1285 C         174.3638  165.1850   65.0169 C.3     214        0    0.0000
   1286 C         175.7461  165.8395   65.1172 C.3     214        0    0.0000
   1287 H         173.7632  165.6901   64.2502 H       214        0    0.0000
   1288 H         173.8241  165.2985   65.9652 H       214        0    0.0000
   1289 H         176.4056  165.2309   65.7482 H       214        0    0.0000
   1290 H         176.2133  165.8857   64.1257 H       214        0    0.0000
   1291 C         175.6755  167.2889   65.7104 C.3     215        0    0.0000
   1292 C         177.0661  167.8776   65.9725 C.3     215        0    0.0000
   1293 H         175.1210  167.9296   65.0136 H       215        0    0.0000
   1294 H         175.0968  167.2618   66.6420 H       215        0    0.0000
   1295 H         177.5944  168.0314   65.0235 H       215        0    0.0000
   1296 H         176.9743  168.8632   66.4454 H       215        0    0.0000
   1297 C         177.9380  166.9551   66.8924 C.3     216        0    0.0000
   1298 C         179.3398  167.5282   67.1283 C.3     216        0    0.0000
   1299 H         177.4206  166.8204   67.8504 H       216        0    0.0000
   1300 H         178.0102  165.9624   66.4311 H       216        0    0.0000
   1301 H         179.8481  166.9648   67.9206 H       216        0    0.0000
   1302 H         179.9488  167.4172   66.2225 H       216        0    0.0000
   1303 C         179.3025  169.0430   67.5297 C.3     217        0    0.0000
   1304 C         180.6930  169.5863   67.8770 C.3     217        0    0.0000
   1305 H         178.8702  169.6179   66.7013 H       217        0    0.0000
   1306 H         178.6264  169.1657   68.3849 H       217        0    0.0000
   1307 H         181.3204  169.6165   66.9777 H       217        0    0.0000
   1308 H         180.6136  170.6183   68.2406 H       217        0    0.0000
   1309 C         181.4138  168.7205   68.9672 C.3     218        0    0.0000
   1310 C         182.8732  169.1416   69.1719 C.3     218        0    0.0000
   1311 H         180.8611  168.8082   69.9107 H       218        0    0.0000
   1312 H         181.3648  167.6655   68.6702 H       218        0    0.0000
   1313 H         183.5113  168.6665   68.4165 H       218        0    0.0000
   1314 H         182.9749  170.2252   69.0338 H       218        0    0.0000
   1315 C         183.4070  168.7614   70.5959 C.3     219        0    0.0000
   1316 C         184.8049  169.3302   70.8632 C.3     219        0    0.0000
   1317 H         182.7001  169.1312   71.3489 H       219        0    0.0000
   1318 H         183.4219  167.6683   70.6877 H       219        0    0.0000
   1319 H         185.5668  168.5681   70.6575 H       219        0    0.0000
   1320 H         185.0061  170.1682   70.1843 H       219        0    0.0000
   1321 C         184.9721  169.8258   72.3410 C.3     220        0    0.0000
   1322 C         186.1437  170.8015   72.4974 C.3     220        0    0.0000
   1323 H         184.0384  170.3047   72.6611 H       220        0    0.0000
   1324 H         185.1185  168.9547   72.9916 H       220        0    0.0000
   1325 H         186.7064  170.5703   73.4104 H       220        0    0.0000
   1326 H         186.8424  170.6877   71.6594 H       220        0    0.0000
   1327 C         185.6692  172.2943   72.5606 C.3     221        0    0.0000
   1328 C         186.8097  173.2513   72.9247 C.3     221        0    0.0000
   1329 H         185.2417  172.5709   71.5889 H       221        0    0.0000
   1330 H         184.8594  172.3771   73.2961 H       221        0    0.0000
   1331 H         187.3567  172.8704   73.7960 H       221        0    0.0000
   1332 H         187.5309  173.3080   72.1000 H       221        0    0.0000
   1333 C         186.2932  174.6964   73.2446 C.3     222        0    0.0000
   1334 C         187.3790  175.5748   73.8760 C.3     222        0    0.0000
   1335 H         185.9303  175.1557   72.3167 H       222        0    0.0000
   1336 H         185.4303  174.6226   73.9180 H       222        0    0.0000
   1337 H         187.8909  175.0240   74.6748 H       222        0    0.0000
   1338 H         188.1413  175.8263   73.1282 H       222        0    0.0000
   1339 C         186.7970  176.9032   74.4709 C.3     223        0    0.0000
   1340 C         187.7425  177.5456   75.4920 C.3     223        0    0.0000
   1341 H         186.6001  177.6024   73.6488 H       223        0    0.0000
   1342 H         185.8288  176.6867   74.9390 H       223        0    0.0000
   1343 H         188.0444  176.8050   76.2430 H       223        0    0.0000
   1344 H         188.6606  177.8822   74.9947 H       223        0    0.0000
   1345 C         187.0863  178.7675   76.2226 C.3     224        0    0.0000
   1346 C         188.1210  179.6336   76.9495 C.3     224        0    0.0000
   1347 H         186.5428  179.3705   75.4846 H       224        0    0.0000
   1348 H         186.3405  178.3945   76.9354 H       224        0    0.0000
   1349 H         188.5704  179.0689   77.7757 H       224        0    0.0000
   1350 H         188.9381  179.8965   76.2664 H       224        0    0.0000
   1351 C         187.4956  180.9528   77.5206 C.3     225        0    0.0000
   1352 C         188.4310  182.1562   77.3596 C.3     225        0    0.0000
   1353 H         186.5448  181.1442   77.0078 H       225        0    0.0000
   1354 H         187.2569  180.8010   78.5805 H       225        0    0.0000
   1355 H         189.2803  182.0672   78.0483 H       225        0    0.0000
   1356 H         188.8485  182.1751   76.3453 H       225        0    0.0000
   1357 C         187.7009  183.5166   77.6309 C.3     226        0    0.0000
   1358 C         188.6792  184.6376   77.9987 C.3     226        0    0.0000
   1359 H         187.1284  183.7950   76.7374 H       226        0    0.0000
   1360 H         186.9731  183.3724   78.4391 H       226        0    0.0000
   1361 H         189.3101  184.3253   78.8402 H       226        0    0.0000
   1362 H         189.3537  184.8393   77.1572 H       226        0    0.0000
   1363 C         187.9424  185.9662   78.3853 C.3     227        0    0.0000
   1364 C         188.9205  187.1116   78.6687 C.3     227        0    0.0000
   1365 H         187.2636  186.2443   77.5696 H       227        0    0.0000
   1366 H         187.3161  185.7796   79.2665 H       227        0    0.0000
   1367 H         189.6527  186.8025   79.4250 H       227        0    0.0000
   1368 H         189.4879  187.3548   77.7618 H       227        0    0.0000
   1369 C         188.1911  188.4052   79.1707 C.3     228        0    0.0000
   1370 C         189.1745  189.4714   79.6658 C.3     228        0    0.0000
   1371 H         187.5810  188.8072   78.3523 H       228        0    0.0000
   1372 H         187.4975  188.1306   79.9751 H       228        0    0.0000
   1373 H         190.1726  189.2845   79.2506 H       228        0    0.0000
   1374 H         188.8657  190.4622   79.3100 H       228        0    0.0000
   1375 C         189.2762  189.5053   81.2298 C.3     229        0    0.0000
   1376 C         190.1405  190.6676   81.7307 C.3     229        0    0.0000
   1377 H         188.2649  189.5809   81.6483 H       229        0    0.0000
   1378 H         189.6906  188.5510   81.5780 H       229        0    0.0000
   1379 H         191.1663  190.5622   81.3562 H       229        0    0.0000
   1380 H         189.7578  191.6176   81.3376 H       229        0    0.0000
   1381 C         190.1797  190.7475   83.2958 C.3     230        0    0.0000
   1382 C         191.0993  191.8662   83.7975 C.3     230        0    0.0000
   1383 H         189.1594  190.9042   83.6675 H       230        0    0.0000
   1384 H         190.5138  189.7802   83.6910 H       230        0    0.0000
   1385 H         192.1149  191.7208   83.4090 H       230        0    0.0000
   1386 H         190.7531  192.8360   83.4190 H       230        0    0.0000
   1387 C         191.1610  191.9275   85.3627 C.3     231        0    0.0000
   1388 C         190.9384  193.3465   85.8976 C.3     231        0    0.0000
   1389 H         190.4041  191.2477   85.7733 H       231        0    0.0000
   1390 H         192.1364  191.5496   85.6933 H       231        0    0.0000
   1391 H         191.8933  193.8844   85.9460 H       231        0    0.0000
   1392 H         190.2937  193.9101   85.2120 H       231        0    0.0000
   1393 C         190.2846  193.3485   87.3224 C.3     232        0    0.0000
   1394 C         191.3278  193.4576   88.4400 C.3     232        0    0.0000
   1395 H         189.5769  194.1844   87.3855 H       232        0    0.0000
   1396 H         189.6982  192.4293   87.4437 H       232        0    0.0000
   1397 H         192.3133  193.1538   88.0657 H       232        0    0.0000
   1398 H         191.4224  194.5009   88.7657 H       232        0    0.0000
   1399 C         190.9637  192.5719   89.6811 C.3     233        0    0.0000
   1400 C         192.2072  192.0990   90.4422 C.3     233        0    0.0000
   1401 H         190.3112  193.1489   90.3481 H       233        0    0.0000
   1402 H         190.3803  191.7077   89.3399 H       233        0    0.0000
   1403 H         192.8746  191.5488   89.7673 H       233        0    0.0000
   1404 H         192.7740  192.9631   90.8103 H       233        0    0.0000
   1405 C         191.8452  191.1772   91.6573 C.3     234        0    0.0000
   1406 C         192.5405  191.6198   92.9495 C.3     234        0    0.0000
   1407 H         190.7568  191.1840   91.7945 H       234        0    0.0000
   1408 H         192.1256  190.1449   91.4138 H       234        0    0.0000
   1409 H         193.5143  191.1230   93.0418 H       234        0    0.0000
   1410 H         192.7387  192.6983   92.9196 H       234        0    0.0000
   1411 C         191.6864  191.2981   94.2240 C.3     235        0    0.0000
   1412 C         192.4760  191.5082   95.5207 C.3     235        0    0.0000
   1413 H         190.7926  191.9343   94.2205 H       235        0    0.0000
   1414 H         191.3348  190.2607   94.1615 H       235        0    0.0000
   1415 H         193.3891  190.9002   95.5078 H       235        0    0.0000
   1416 H         192.7953  192.5546   95.6012 H       235        0    0.0000
   1417 C         191.6390  191.1360   96.7929 C.3     236        0    0.0000
   1418 C         192.3531  191.5245   98.0921 C.3     236        0    0.0000
   1419 H         190.6650  191.6374   96.7345 H       236        0    0.0000
   1420 H         191.4392  190.0573   96.7815 H       236        0    0.0000
   1421 H         193.3166  191.0044   98.1618 H       236        0    0.0000
   1422 H         192.5744  192.5990   98.0929 H       236        0    0.0000
   1423 C         191.5015  191.1831   99.3632 C.3     237        0    0.0000
   1424 C         192.2570  191.4754  100.6643 C.3     237        0    0.0000
   1425 H         190.5702  191.7620   99.3307 H       237        0    0.0000
   1426 H         191.2160  190.1245   99.3236 H       237        0    0.0000
   1427 H         193.1972  190.9107  100.6883 H       237        0    0.0000
   1428 H         192.5263  192.5378  100.7123 H       237        0    0.0000
   1429 C         191.4152  191.1095  101.9351 C.3     238        0    0.0000
   1430 C         192.1531  191.4428  103.2364 C.3     238        0    0.0000
   1431 H         190.4611  191.6497  101.8948 H       238        0    0.0000
   1432 H         191.1733  190.0400  101.9031 H       238        0    0.0000
   1433 H         193.1040  190.8974  103.2799 H       238        0    0.0000
   1434 H         192.4012  192.5111  103.2652 H       238        0    0.0000
   1435 C         191.3074  191.0860  104.5071 C.3     239        0    0.0000
   1436 C         192.0567  191.3927  105.8085 C.3     239        0    0.0000
   1437 H         190.3655  191.6476  104.4741 H       239        0    0.0000
   1438 H         191.0416  190.0224  104.4678 H       239        0    0.0000
   1439 H         193.0000  190.8336  105.8401 H       239        0    0.0000
   1440 H         192.3198  192.4570  105.8492 H       239        0    0.0000
   1441 C         191.2126  191.0320  107.0792 C.3     240        0    0.0000
   1442 C         191.9581  191.3476  108.3806 C.3     240        0    0.0000
   1443 H         190.2663  191.5858  107.0441 H       240        0    0.0000
   1444 H         190.9554  189.9662  107.0420 H       240        0    0.0000
   1445 H         192.9017  190.7891  108.4185 H       240        0    0.0000
   1446 H         192.2206  192.4122  108.4151 H       240        0    0.0000
   1447 C         191.1107  190.9947  109.6513 C.3     241        0    0.0000
   1448 C         191.8630  191.2940  110.9527 C.3     241        0    0.0000
   1449 H         190.1728  191.5629  109.6199 H       241        0    0.0000
   1450 H         190.8374  189.9330  109.6105 H       241        0    0.0000
   1451 H         192.8020  190.7275  110.9832 H       241        0    0.0000
   1452 H         192.1344  192.3561  110.9946 H       241        0    0.0000
   1453 C         191.0168  190.9382  112.2234 C.3     242        0    0.0000
   1454 C         191.7611  191.2565  113.5248 C.3     242        0    0.0000
   1455 H         190.0713  191.4932  112.1854 H       242        0    0.0000
   1456 H         190.7581  189.8726  112.1890 H       242        0    0.0000
   1457 H         192.7061  190.7006  113.5634 H       242        0    0.0000
   1458 H         192.0207  192.3219  113.5587 H       242        0    0.0000
   1459 C         190.9143  190.9022  114.7955 C.3     243        0    0.0000
   1460 C         191.6584  191.2211  116.0970 C.3     243        0    0.0000
   1461 H         189.9691  191.4578  114.7568 H       243        0    0.0000
   1462 H         190.6550  189.8367  114.7619 H       243        0    0.0000
   1463 H         192.6032  190.6649  116.1360 H       243        0    0.0000
   1464 H         191.9183  192.2864  116.1303 H       243        0    0.0000
   1465 C         190.8111  190.8677  117.3677 C.3     244        0    0.0000
   1466 C         191.5639  191.1653  118.6690 C.3     244        0    0.0000
   1467 H         189.8735  191.4365  117.3369 H       244        0    0.0000
   1468 H         190.5370  189.8062  117.3260 H       244        0    0.0000
   1469 H         192.5034  190.5995  118.6980 H       244        0    0.0000
   1470 H         191.8345  192.2276  118.7126 H       244        0    0.0000
   1471 C         190.7188  190.8066  119.9397 C.3     245        0    0.0000
   1472 C         190.7714  191.9095  121.0026 C.3     245        0    0.0000
   1473 H         189.6804  190.6274  119.6347 H       245        0    0.0000
   1474 H         191.0917  189.8633  120.3577 H       245        0    0.0000
   1475 H         191.5300  191.6685  121.7576 H       245        0    0.0000
   1476 H         191.0736  192.8594  120.5444 H       245        0    0.0000
   1477 C         189.3916  192.1105  121.7190 C.3     246        0    0.0000
   1478 C         189.0679  193.5904  121.9514 C.3     246        0    0.0000
   1479 H         188.6063  191.6446  121.1109 H       246        0    0.0000
   1480 H         189.4087  191.5744  122.6760 H       246        0    0.0000
   1481 H         189.8531  194.0563  122.5595 H       246        0    0.0000
   1482 H         189.0508  194.1265  120.9944 H       246        0    0.0000
   1483 H         188.1085  193.7301  122.4495 H       246        0    0.0000
   1484 H         179.2798   35.8687  121.7450 H         0        0    0.0000
@<TRIPOS>BOND
     1     1     2      1
     2     1     3      1
     3     1     4      1
     4     1  1484      H
     5     2     5      1
     6     2     6      1
     7     2     7      1
     8     7     8      1
     9     7     9      1
    10     7    10      1
    11     8    11      1
    12     8    12      1
    13     8    13      1
    14    13    14      1
    15    13    15      1
    16    13    16      1
    17    14    17      1
    18    14    18      1
    19    14    19      1
    20    19    20      1
    21    19    21      1
    22    19    22      1
    23    20    23      1
    24    20    24      1
    25    20    25      1
    26    25    26      1
    27    25    27      1
    28    25    28      1
    29    26    29      1
    30    26    30      1
    31    26    31      1
    32    31    32      1
    33    31    33      1
    34    31    34      1
    35    32    35      1
    36    32    36      1
    37    32    37      1
    38    37    38      1
    39    37    39      1
    40    37    40      1
    41    38    41      1
    42    38    42      1
    43    38    43      1
    44    43    44      1
    45    43    45      1
    46    43    46      1
    47    44    47      1
    48    44    48      1
    49    44    49      1
    50    49    50      1
    51    49    51      1
    52    49    52      1
    53    50    53      1
    54    50    54      1
    55    50    55      1
    56    55    56      1
    57    55    57      1
    58    55    58      1
    59    56    59      1
    60    56    60      1
    61    56    61      1
    62    61    62      1
    63    61    63      1
    64    61    64      1
    65    62    65      1
    66    62    66      1
    67    62    67      1
    68    67    68      1
    69    67    69      1
    70    67    70      1
    71    68    71      1
    72    68    72      1
    73    68    73      1
    74    73    74      1
    75    73    75      1
    76    73    76      1
    77    74    77      1
    78    74    78      1
    79    74    79      1
    80    79    80      1
    81    79    81      1
    82    79    82      1
    83    80    83      1
    84    80    84      1
    85    80    85      1
    86    85    86      1
    87    85    87      1
    88    85    88      1
    89    86    89      1
    90    86    90      1
    91    86    91      1
    92    91    92      1
    93    91    93      1
    94    91    94      1
    95    92    95      1
    96    92    96      1
    97    92    97      1
    98    97    98      1
    99    97    99      1
   100    97   100      1
   101    98   101      1
   102    98   102      1
   103    98   103      1
   104   103   104      1
   105   103   105      1
   106   103   106      1
   107   104   107      1
   108   104   108      1
   109   104   109      1
   110   109   110      1
   111   109   111      1
   112   109   112      1
   113   110   113      1
   114   110   114      1
   115   110   115      1
   116   115   116      1
   117   115   117      1
   118   115   118      1
   119   116   119      1
   120   116   120      1
   121   116   121      1
   122   121   122      1
   123   121   123      1
   124   121   124      1
   125   122   125      1
   126   122   126      1
   127   122   127      1
   128   127   128      1
   129   127   129      1
   130   127   130      1
   131   128   131      1
   132   128   132      1
   133   128   133      1
   134   133   134      1
   135   133   135      1
   136   133   136      1
   137   134   137      1
   138   134   138      1
   139   134   139      1
   140   139   140      1
   141   139   141      1
   142   139   142      1
   143   140   143      1
   144   140   144      1
   145   140   145      1
   146   145   146      1
   147   145   147      1
   148   145   148      1
   149   146   149      1
   150   146   150      1
   151   146   151      1
   152   151   152      1
   153   151   153      1
   154   151   154      1
   155   152   155      1
   156   152   156      1
   157   152   157      1
   158   157   158      1
   159   157   159      1
   160   157   160      1
   161   158   161      1
   162   158   162      1
   163   158   163      1
   164   163   164      1
   165   163   165      1
   166   163   166      1
   167   164   167      1
   168   164   168      1
   169   164   169      1
   170   169   170      1
   171   169   171      1
   172   169   172      1
   173   170   173      1
   174   170   174      1
   175   170   175      1
   176   175   176      1
   177   175   177      1
   178   175   178      1
   179   176   179      1
   180   176   180      1
   181   176   181      1
   182   181   182      1
   183   181   183      1
   184   181   184      1
   185   182   185      1
   186   182   186      1
   187   182   187      1
   188   187   188      1
   189   187   189      1
   190   187   190      1
   191   188   191      1
   192   188   192      1
   193   188   193      1
   194   193   194      1
   195   193   195      1
   196   193   196      1
   197   194   197      1
   198   194   198      1
   199   194   199      1
   200   199   200      1
   201   199   201      1
   202   199   202      1
   203   200   203      1
   204   200   204      1
   205   200   205      1
   206   205   206      1
   207   205   207      1
   208   205   208      1
   209   206   209      1
   210   206   210      1
   211   206   211      1
   212   211   212      1
   213   211   213      1
   214   211   214      1
   215   212   215      1
   216   212   216      1
   217   212   217      1
   218   217   218      1
   219   217   219      1
   220   217   220      1
   221   218   221      1
   222   218   222      1
   223   218   223      1
   224   223   224      1
   225   223   225      1
   226   223   226      1
   227   224   227      1
   228   224   228      1
   229   224   229      1
   230   229   230      1
   231   229   231      1
   232   229   232      1
   233   230   233      1
   234   230   234      1
   235   230   235      1
   236   235   236      1
   237   235   237      1
   238   235   238      1
   239   236   239      1
   240   236   240      1
   241   236   241      1
   242   241   242      1
   243   241   243      1
   244   241   244      1
   245   242   245      1
   246   242   246      1
   247   242   247      1
   248   247   248      1
   249   247   249      1
   250   247   250      1
   251   248   251      1
   252   248   252      1
   253   248   253      1
   254   253   254      1
   255   253   255      1
   256   253   256      1
   257   254   257      1
   258   254   258      1
   259   254   259      1
   260   259   260      1
   261   259   261      1
   262   259   262      1
   263   260   263      1
   264   260   264      1
   265   260   265      1
   266   265   266      1
   267   265   267      1
   268   265   268      1
   269   266   269      1
   270   266   270      1
   271   266   271      1
   272   271   272      1
   273   271   273      1
   274   271   274      1
   275   272   275      1
   276   272   276      1
   277   272   277      1
   278   277   278      1
   279   277   279      1
   280   277   280      1
   281   278   281      1
   282   278   282      1
   283   278   283      1
   284   283   284      1
   285   283   285      1
   286   283   286      1
   287   284   287      1
   288   284   288      1
   289   284   289      1
   290   289   290      1
   291   289   291      1
   292   289   292      1
   293   290   293      1
   294   290   294      1
   295   290   295      1
   296   295   296      1
   297   295   297      1
   298   295   298      1
   299   296   299      1
   300   296   300      1
   301   296   301      1
   302   301   302      1
   303   301   303      1
   304   301   304      1
   305   302   305      1
   306   302   306      1
   307   302   307      1
   308   307   308      1
   309   307   309      1
   310   307   310      1
   311   308   311      1
   312   308   312      1
   313   308   313      1
   314   313   314      1
   315   313   315      1
   316   313   316      1
   317   314   317      1
   318   314   318      1
   319   314   319      1
   320   319   320      1
   321   319   321      1
   322   319   322      1
   323   320   323      1
   324   320   324      1
   325   320   325      1
   326   325   326      1
   327   325   327      1
   328   325   328      1
   329   326   329      1
   330   326   330      1
   331   326   331      1
   332   331   332      1
   333   331   333      1
   334   331   334      1
   335   332   335      1
   336   332   336      1
   337   332   337      1
   338   337   338      1
   339   337   339      1
   340   337   340      1
   341   338   341      1
   342   338   342      1
   343   338   343      1
   344   343   344      1
   345   343   345      1
   346   343   346      1
   347   344   347      1
   348   344   348      1
   349   344   349      1
   350   349   350      1
   351   349   351      1
   352   349   352      1
   353   350   353      1
   354   350   354      1
   355   350   355      1
   356   355   356      1
   357   355   357      1
   358   355   358      1
   359   356   359      1
   360   356   360      1
   361   356   361      1
   362   361   362      1
   363   361   363      1
   364   361   364      1
   365   362   365      1
   366   362   366      1
   367   362   367      1
   368   367   368      1
   369   367   369      1
   370   367   370      1
   371   368   371      1
   372   368   372      1
   373   368   373      1
   374   373   374      1
   375   373   375      1
   376   373   376      1
   377   374   377      1
   378   374   378      1
   379   374   379      1
   380   379   380      1
   381   379   381      1
   382   379   382      1
   383   380   383      1
   384   380   384      1
   385   380   385      1
   386   385   386      1
   387   385   387      1
   388   385   388      1
   389   386   389      1
   390   386   390      1
   391   386   391      1
   392   391   392      1
   393   391   393      1
   394   391   394      1
   395   392   395      1
   396   392   396      1
   397   392   397      1
   398   397   398      1
   399   397   399      1
   400   397   400      1
   401   398   401      1
   402   398   402      1
   403   398   403      1
   404   403   404      1
   405   403   405      1
   406   403   406      1
   407   404   407      1
   408   404   408      1
   409   404   409      1
   410   409   410      1
   411   409   411      1
   412   409   412      1
   413   410   413      1
   414   410   414      1
   415   410   415      1
   416   415   416      1
   417   415   417      1
   418   415   418      1
   419   416   419      1
   420   416   420      1
   421   416   421      1
   422   421   422      1
   423   421   423      1
   424   421   424      1
   425   422   425      1
   426   422   426      1
   427   422   427      1
   428   427   428      1
   429   427   429      1
   430   427   430      1
   431   428   431      1
   432   428   432      1
   433   428   433      1
   434   433   434      1
   435   433   435      1
   436   433   436      1
   437   434   437      1
   438   434   438      1
   439   434   439      1
   440   439   440      1
   441   439   441      1
   442   439   442      1
   443   440   443      1
   444   440   444      1
   445   440   445      1
   446   445   446      1
   447   445   447      1
   448   445   448      1
   449   446   449      1
   450   446   450      1
   451   446   451      1
   452   451   452      1
   453   451   453      1
   454   451   454      1
   455   452   455      1
   456   452   456      1
   457   452   457      1
   458   457   458      1
   459   457   459      1
   460   457   460      1
   461   458   461      1
   462   458   462      1
   463   458   463      1
   464   463   464      1
   465   463   465      1
   466   463   466      1
   467   464   467      1
   468   464   468      1
   469   464   469      1
   470   469   470      1
   471   469   471      1
   472   469   472      1
   473   470   473      1
   474   470   474      1
   475   470   475      1
   476   475   476      1
   477   475   477      1
   478   475   478      1
   479   476   479      1
   480   476   480      1
   481   476   481      1
   482   481   482      1
   483   481   483      1
   484   481   484      1
   485   482   485      1
   486   482   486      1
   487   482   487      1
   488   487   488      1
   489   487   489      1
   490   487   490      1
   491   488   491      1
   492   488   492      1
   493   488   493      1
   494   493   494      1
   495   493   495      1
   496   493   496      1
   497   494   497      1
   498   494   498      1
   499   494   499      1
   500   499   500      1
   501   499   501      1
   502   499   502      1
   503   500   503      1
   504   500   504      1
   505   500   505      1
   506   505   506      1
   507   505   507      1
   508   505   508      1
   509   506   509      1
   510   506   510      1
   511   506   511      1
   512   511   512      1
   513   511   513      1
   514   511   514      1
   515   512   515      1
   516   512   516      1
   517   512   517      1
   518   517   518      1
   519   517   519      1
   520   517   520      1
   521   518   521      1
   522   518   522      1
   523   518   523      1
   524   523   524      1
   525   523   525      1
   526   523   526      1
   527   524   527      1
   528   524   528      1
   529   524   529      1
   530   529   530      1
   531   529   531      1
   532   529   532      1
   533   530   533      1
   534   530   534      1
   535   530   535      1
   536   535   536      1
   537   535   537      1
   538   535   538      1
   539   536   539      1
   540   536   540      1
   541   536   541      1
   542   541   542      1
   543   541   543      1
   544   541   544      1
   545   542   545      1
   546   542   546      1
   547   542   547      1
   548   547   548      1
   549   547   549      1
   550   547   550      1
   551   548   551      1
   552   548   552      1
   553   548   553      1
   554   553   554      1
   555   553   555      1
   556   553   556      1
   557   554   557      1
   558   554   558      1
   559   554   559      1
   560   559   560      1
   561   559   561      1
   562   559   562      1
   563   560   563      1
   564   560   564      1
   565   560   565      1
   566   565   566      1
   567   565   567      1
   568   565   568      1
   569   566   569      1
   570   566   570      1
   571   566   571      1
   572   571   572      1
   573   571   573      1
   574   571   574      1
   575   572   575      1
   576   572   576      1
   577   572   577      1
   578   577   578      1
   579   577   579      1
   580   577   580      1
   581   578   581      1
   582   578   582      1
   583   578   583      1
   584   583   584      1
   585   583   585      1
   586   583   586      1
   587   584   587      1
   588   584   588      1
   589   584   589      1
   590   589   590      1
   591   589   591      1
   592   589   592      1
   593   590   593      1
   594   590   594      1
   595   590   595      1
   596   595   596      1
   597   595   597      1
   598   595   598      1
   599   596   599      1
   600   596   600      1
   601   596   601      1
   602   601   602      1
   603   601   603      1
   604   601   604      1
   605   602   605      1
   606   602   606      1
   607   602   607      1
   608   607   608      1
   609   607   609      1
   610   607   610      1
   611   608   611      1
   612   608   612      1
   613   608   613      1
   614   613   614      1
   615   613   615      1
   616   613   616      1
   617   614   617      1
   618   614   618      1
   619   614   619      1
   620   619   620      1
   621   619   621      1
   622   619   622      1
   623   620   623      1
   624   620   624      1
   625   620   625      1
   626   625   626      1
   627   625   627      1
   628   625   628      1
   629   626   629      1
   630   626   630      1
   631   626   631      1
   632   631   632      1
   633   631   633      1
   634   631   634      1
   635   632   635      1
   636   632   636      1
   637   632   637      1
   638   637   638      1
   639   637   639      1
   640   637   640      1
   641   638   641      1
   642   638   642      1
   643   638   643      1
   644   643   644      1
   645   643   645      1
   646   643   646      1
   647   644   647      1
   648   644   648      1
   649   644   649      1
   650   649   650      1
   651   649   651      1
   652   649   652      1
   653   650   653      1
   654   650   654      1
   655   650   655      1
   656   655   656      1
   657   655   657      1
   658   655   658      1
   659   656   659      1
   660   656   660      1
   661   656   661      1
   662   661   662      1
   663   661   663      1
   664   661   664      1
   665   662   665      1
   666   662   666      1
   667   662   667      1
   668   667   668      1
   669   667   669      1
   670   667   670      1
   671   668   671      1
   672   668   672      1
   673   668   673      1
   674   673   674      1
   675   673   675      1
   676   673   676      1
   677   674   677      1
   678   674   678      1
   679   674   679      1
   680   679   680      1
   681   679   681      1
   682   679   682      1
   683   680   683      1
   684   680   684      1
   685   680   685      1
   686   685   686      1
   687   685   687      1
   688   685   688      1
   689   686   689      1
   690   686   690      1
   691   686   691      1
   692   691   692      1
   693   691   693      1
   694   691   694      1
   695   692   695      1
   696   692   696      1
   697   692   697      1
   698   697   698      1
   699   697   699      1
   700   697   700      1
   701   698   701      1
   702   698   702      1
   703   698   703      1
   704   703   704      1
   705   703   705      1
   706   703   706      1
   707   704   707      1
   708   704   708      1
   709   704   709      1
   710   709   710      1
   711   709   711      1
   712   709   712      1
   713   710   713      1
   714   710   714      1
   715   710   715      1
   716   715   716      1
   717   715   717      1
   718   715   718      1
   719   716   719      1
   720   716   720      1
   721   716   721      1
   722   721   722      1
   723   721   723      1
   724   721   724      1
   725   722   725      1
   726   722   726      1
   727   722   727      1
   728   727   728      1
   729   727   729      1
   730   727   730      1
   731   728   731      1
   732   728   732      1
   733   728   733      1
   734   733   734      1
   735   733   735      1
   736   733   736      1
   737   734   737      1
   738   734   738      1
   739   734   739      1
   740   739   740      1
   741   739   741      1
   742   739   742      1
   743   740   743      1
   744   740   744      1
   745   740   745      1
   746   745   746      1
   747   745   747      1
   748   745   748      1
   749   746   749      1
   750   746   750      1
   751   746   751      1
   752   751   752      1
   753   751   753      1
   754   751   754      1
   755   752   755      1
   756   752   756      1
   757   752   757      1
   758   757   758      1
   759   757   759      1
   760   757   760      1
   761   758   761      1
   762   758   762      1
   763   758   763      1
   764   763   764      1
   765   763   765      1
   766   763   766      1
   767   764   767      1
   768   764   768      1
   769   764   769      1
   770   769   770      1
   771   769   771      1
   772   769   772      1
   773   770   773      1
   774   770   774      1
   775   770   775      1
   776   775   776      1
   777   775   777      1
   778   775   778      1
   779   776   779      1
   780   776   780      1
   781   776   781      1
   782   781   782      1
   783   781   783      1
   784   781   784      1
   785   782   785      1
   786   782   786      1
   787   782   787      1
   788   787   788      1
   789   787   789      1
   790   787   790      1
   791   788   791      1
   792   788   792      1
   793   788   793      1
   794   793   794      1
   795   793   795      1
   796   793   796      1
   797   794   797      1
   798   794   798      1
   799   794   799      1
   800   799   800      1
   801   799   801      1
   802   799   802      1
   803   800   803      1
   804   800   804      1
   805   800   805      1
   806   805   806      1
   807   805   807      1
   808   805   808      1
   809   806   809      1
   810   806   810      1
   811   806   811      1
   812   811   812      1
   813   811   813      1
   814   811   814      1
   815   812   815      1
   816   812   816      1
   817   812   817      1
   818   817   818      1
   819   817   819      1
   820   817   820      1
   821   818   821      1
   822   818   822      1
   823   818   823      1
   824   823   824      1
   825   823   825      1
   826   823   826      1
   827   824   827      1
   828   824   828      1
   829   824   829      1
   830   829   830      1
   831   829   831      1
   832   829   832      1
   833   830   833      1
   834   830   834      1
   835   830   835      1
   836   835   836      1
   837   835   837      1
   838   835   838      1
   839   836   839      1
   840   836   840      1
   841   836   841      1
   842   841   842      1
   843   841   843      1
   844   841   844      1
   845   842   845      1
   846   842   846      1
   847   842   847      1
   848   847   848      1
   849   847   849      1
   850   847   850      1
   851   848   851      1
   852   848   852      1
   853   848   853      1
   854   853   854      1
   855   853   855      1
   856   853   856      1
   857   854   857      1
   858   854   858      1
   859   854   859      1
   860   859   860      1
   861   859   861      1
   862   859   862      1
   863   860   863      1
   864   860   864      1
   865   860   865      1
   866   865   866      1
   867   865   867      1
   868   865   868      1
   869   866   869      1
   870   866   870      1
   871   866   871      1
   872   871   872      1
   873   871   873      1
   874   871   874      1
   875   872   875      1
   876   872   876      1
   877   872   877      1
   878   877   878      1
   879   877   879      1
   880   877   880      1
   881   878   881      1
   882   878   882      1
   883   878   883      1
   884   883   884      1
   885   883   885      1
   886   883   886      1
   887   884   887      1
   888   884   888      1
   889   884   889      1
   890   889   890      1
   891   889   891      1
   892   889   892      1
   893   890   893      1
   894   890   894      1
   895   890   895      1
   896   895   896      1
   897   895   897      1
   898   895   898      1
   899   896   899      1
   900   896   900      1
   901   896   901      1
   902   901   902      1
   903   901   903      1
   904   901   904      1
   905   902   905      1
   906   902   906      1
   907   902   907      1
   908   907   908      1
   909   907   909      1
   910   907   910      1
   911   908   911      1
   912   908   912      1
   913   908   913      1
   914   913   914      1
   915   913   915      1
   916   913   916      1
   917   914   917      1
   918   914   918      1
   919   914   919      1
   920   919   920      1
   921   919   921      1
   922   919   922      1
   923   920   923      1
   924   920   924      1
   925   920   925      1
   926   925   926      1
   927   925   927      1
   928   925   928      1
   929   926   929      1
   930   926   930      1
   931   926   931      1
   932   931   932      1
   933   931   933      1
   934   931   934      1
   935   932   935      1
   936   932   936      1
   937   932   937      1
   938   937   938      1
   939   937   939      1
   940   937   940      1
   941   938   941      1
   942   938   942      1
   943   938   943      1
   944   943   944      1
   945   943   945      1
   946   943   946      1
   947   944   947      1
   948   944   948      1
   949   944   949      1
   950   949   950      1
   951   949   951      1
   952   949   952      1
   953   950   953      1
   954   950   954      1
   955   950   955      1
   956   955   956      1
   957   955   957      1
   958   955   958      1
   959   956   959      1
   960   956   960      1
   961   956   961      1
   962   961   962      1
   963   961   963      1
   964   961   964      1
   965   962   965      1
   966   962   966      1
   967   962   967      1
   968   967   968      1
   969   967   969      1
   970   967   970      1
   971   968   971      1
   972   968   972      1
   973   968   973      1
   974   973   974      1
   975   973   975      1
   976   973   976      1
   977   974   977      1
   978   974   978      1
   979   974   979      1
   980   979   980      1
   981   979   981      1
   982   979   982      1
   983   980   983      1
   984   980   984      1
   985   980   985      1
   986   985   986      1
   987   985   987      1
   988   985   988      1
   989   986   989      1
   990   986   990      1
   991   986   991      1
   992   991   992      1
   993   991   993      1
   994   991   994      1
   995   992   995      1
   996   992   996      1
   997   992   997      1
   998   997   998      1
   999   997   999      1
  1000   997  1000      1
  1001   998  1001      1
  1002   998  1002      1
  1003   998  1003      1
  1004  1003  1004      1
  1005  1003  1005      1
  1006  1003  1006      1
  1007  1004  1007      1
  1008  1004  1008      1
  1009  1004  1009      1
  1010  1009  1010      1
  1011  1009  1011      1
  1012  1009  1012      1
  1013  1010  1013      1
  1014  1010  1014      1
  1015  1010  1015      1
  1016  1015  1016      1
  1017  1015  1017      1
  1018  1015  1018      1
  1019  1016  1019      1
  1020  1016  1020      1
  1021  1016  1021      1
  1022  1021  1022      1
  1023  1021  1023      1
  1024  1021  1024      1
  1025  1022  1025      1
  1026  1022  1026      1
  1027  1022  1027      1
  1028  1027  1028      1
  1029  1027  1029      1
  1030  1027  1030      1
  1031  1028  1031      1
  1032  1028  1032      1
  1033  1028  1033      1
  1034  1033  1034      1
  1035  1033  1035      1
  1036  1033  1036      1
  1037  1034  1037      1
  1038  1034  1038      1
  1039  1034  1039      1
  1040  1039  1040      1
  1041  1039  1041      1
  1042  1039  1042      1
  1043  1040  1043      1
  1044  1040  1044      1
  1045  1040  1045      1
  1046  1045  1046      1
  1047  1045  1047      1
  1048  1045  1048      1
  1049  1046  1049      1
  1050  1046  1050      1
  1051  1046  1051      1
  1052  1051  1052      1
  1053  1051  1053      1
  1054  1051  1054      1
  1055  1052  1055      1
  1056  1052  1056      1
  1057  1052  1057      1
  1058  1057  1058      1
  1059  1057  1059      1
  1060  1057  1060      1
  1061  1058  1061      1
  1062  1058  1062      1
  1063  1058  1063      1
  1064  1063  1064      1
  1065  1063  1065      1
  1066  1063  1066      1
  1067  1064  1067      1
  1068  1064  1068      1
  1069  1064  1069      1
  1070  1069  1070      1
  1071  1069  1071      1
  1072  1069  1072      1
  1073  1070  1073      1
  1074  1070  1074      1
  1075  1070  1075      1
  1076  1075  1076      1
  1077  1075  1077      1
  1078  1075  1078      1
  1079  1076  1079      1
  1080  1076  1080      1
  1081  1076  1081      1
  1082  1081  1082      1
  1083  1081  1083      1
  1084  1081  1084      1
  1085  1082  1085      1
  1086  1082  1086      1
  1087  1082  1087      1
  1088  1087  1088      1
  1089  1087  1089      1
  1090  1087  1090      1
  1091  1088  1091      1
  1092  1088  1092      1
  1093  1088  1093      1
  1094  1093  1094      1
  1095  1093  1095      1
  1096  1093  1096      1
  1097  1094  1097      1
  1098  1094  1098      1
  1099  1094  1099      1
  1100  1099  1100      1
  1101  1099  1101      1
  1102  1099  1102      1
  1103  1100  1103      1
  1104  1100  1104      1
  1105  1100  1105      1
  1106  1105  1106      1
  1107  1105  1107      1
  1108  1105  1108      1
  1109  1106  1109      1
  1110  1106  1110      1
  1111  1106  1111      1
  1112  1111  1112      1
  1113  1111  1113      1
  1114  1111  1114      1
  1115  1112  1115      1
  1116  1112  1116      1
  1117  1112  1117      1
  1118  1117  1118      1
  1119  1117  1119      1
  1120  1117  1120      1
  1121  1118  1121      1
  1122  1118  1122      1
  1123  1118  1123      1
  1124  1123  1124      1
  1125  1123  1125      1
  1126  1123  1126      1
  1127  1124  1127      1
  1128  1124  1128      1
  1129  1124  1129      1
  1130  1129  1130      1
  1131  1129  1131      1
  1132  1129  1132      1
  1133  1130  1133      1
  1134  1130  1134      1
  1135  1130  1135      1
  1136  1135  1136      1
  1137  1135  1137      1
  1138  1135  1138      1
  1139  1136  1139      1
  1140  1136  1140      1
  1141  1136  1141      1
  1142  1141  1142      1
  1143  1141  1143      1
  1144  1141  1144      1
  1145  1142  1145      1
  1146  1142  1146      1
  1147  1142  1147      1
  1148  1147  1148      1
  1149  1147  1149      1
  1150  1147  1150      1
  1151  1148  1151      1
  1152  1148  1152      1
  1153  1148  1153      1
  1154  1153  1154      1
  1155  1153  1155      1
  1156  1153  1156      1
  1157  1154  1157      1
  1158  1154  1158      1
  1159  1154  1159      1
  1160  1159  1160      1
  1161  1159  1161      1
  1162  1159  1162      1
  1163  1160  1163      1
  1164  1160  1164      1
  1165  1160  1165      1
  1166  1165  1166      1
  1167  1165  1167      1
  1168  1165  1168      1
  1169  1166  1169      1
  1170  1166  1170      1
  1171  1166  1171      1
  1172  1171  1172      1
  1173  1171  1173      1
  1174  1171  1174      1
  1175  1172  1175      1
  1176  1172  1176      1
  1177  1172  1177      1
  1178  1177  1178      1
  1179  1177  1179      1
  1180  1177  1180      1
  1181  1178  1181      1
  1182  1178  1182      1
  1183  1178  1183      1
  1184  1183  1184      1
  1185  1183  1185      1
  1186  1183  1186      1
  1187  1184  1187      1
  1188  1184  1188      1
  1189  1184  1189      1
  1190  1189  1190      1
  1191  1189  1191      1
  1192  1189  1192      1
  1193  1190  1193      1
  1194  1190  1194      1
  1195  1190  1195      1
  1196  1195  1196      1
  1197  1195  1197      1
  1198  1195  1198      1
  1199  1196  1199      1
  1200  1196  1200      1
  1201  1196  1201      1
  1202  1201  1202      1
  1203  1201  1203      1
  1204  1201  1204      1
  1205  1202  1205      1
  1206  1202  1206      1
  1207  1202  1207      1
  1208  1207  1208      1
  1209  1207  1209      1
  1210  1207  1210      1
  1211  1208  1211      1
  1212  1208  1212      1
  1213  1208  1213      1
  1214  1213  1214      1
  1215  1213  1215      1
  1216  1213  1216      1
  1217  1214  1217      1
  1218  1214  1218      1
  1219  1214  1219      1
  1220  1219  1220      1
  1221  1219  1221      1
  1222  1219  1222      1
  1223  1220  1223      1
  1224  1220  1224      1
  1225  1220  1225      1
  1226  1225  1226      1
  1227  1225  1227      1
  1228  1225  1228      1
  1229  1226  1229      1
  1230  1226  1230      1
  1231  1226  1231      1
  1232  1231  1232      1
  1233  1231  1233      1
  1234  1231  1234      1
  1235  1232  1235      1
  1236  1232  1236      1
  1237  1232  1237      1
  1238  1237  1238      1
  1239  1237  1239      1
  1240  1237  1240      1
  1241  1238  1241      1
  1242  1238  1242      1
  1243  1238  1243      1
  1244  1243  1244      1
  1245  1243  1245      1
  1246  1243  1246      1
  1247  1244  1247      1
  1248  1244  1248      1
  1249  1244  1249      1
  1250  1249  1250      1
  1251  1249  1251      1
  1252  1249  1252      1
  1253  1250  1253      1
  1254  1250  1254      1
  1255  1250  1255      1
  1256  1255  1256      1
  1257  1255  1257      1
  1258  1255  1258      1
  1259  1256  1259      1
  1260  1256  1260      1
  1261  1256  1261      1
  1262  1261  1262      1
  1263  1261  1263      1
  1264  1261  1264      1
  1265  1262  1265      1
  1266  1262  1266      1
  1267  1262  1267      1
  1268  1267  1268      1
  1269  1267  1269      1
  1270  1267  1270      1
  1271  1268  1271      1
  1272  1268  1272      1
  1273  1268  1273      1
  1274  1273  1274      1
  1275  1273  1275      1
  1276  1273  1276      1
  1277  1274  1277      1
  1278  1274  1278      1
  1279  1274  1279      1
  1280  1279  1280      1
  1281  1279  1281      1
  1282  1279  1282      1
  1283  1280  1283      1
  1284  1280  1284      1
  1285  1280  1285      1
  1286  1285  1286      1
  1287  1285  1287      1
  1288  1285  1288      1
  1289  1286  1289      1
  1290  1286  1290      1
  1291  1286  1291      1
  1292  1291  1292      1
  1293  1291  1293      1
  1294  1291  1294      1
  1295  1292  1295      1
  1296  1292  1296      1
  1297  1292  1297      1
  1298  1297  1298      1
  1299  1297  1299      1
  1300  1297  1300      1
  1301  1298  1301      1
  1302  1298  1302      1
  1303  1298  1303      1
  1304  1303  1304      1
  1305  1303  1305      1
  1306  1303  1306      1
  1307  1304  1307      1
  1308  1304  1308      1
  1309  1304  1309      1
  1310  1309  1310      1
  1311  1309  1311      1
  1312  1309  1312      1
  1313  1310  1313      1
  1314  1310  1314      1
  1315  1310  1315      1
  1316  1315  1316      1
  1317  1315  1317      1
  1318  1315  1318      1
  1319  1316  1319      1
  1320  1316  1320      1
  1321  1316  1321      1
  1322  1321  1322      1
  1323  1321  1323      1
  1324  1321  1324      1
  1325  1322  1325      1
  1326  1322  1326      1
  1327  1322  1327      1
  1328  1327  1328      1
  1329  1327  1329      1
  1330  1327  1330      1
  1331  1328  1331      1
  1332  1328  1332      1
  1333  1328  1333      1
  1334  1333  1334      1
  1335  1333  1335      1
  1336  1333  1336      1
  1337  1334  1337      1
  1338  1334  1338      1
  1339  1334  1339      1
  1340  1339  1340      1
  1341  1339  1341      1
  1342  1339  1342      1
  1343  1340  1343      1
  1344  1340  1344      1
  1345  1340  1345      1
  1346  1345  1346      1
  1347  1345  1347      1
  1348  1345  1348      1
  1349  1346  1349      1
  1350  1346  1350      1
  1351  1346  1351      1
  1352  1351  1352      1
  1353  1351  1353      1
  1354  1351  1354      1
  1355  1352  1355      1
  1356  1352  1356      1
  1357  1352  1357      1
  1358  1357  1358      1
  1359  1357  1359      1
  1360  1357  1360      1
  1361  1358  1361      1
  1362  1358  1362      1
  1363  1358  1363      1
  1364  1363  1364      1
  1365  1363  1365      1
  1366  1363  1366      1
  1367  1364  1367      1
  1368  1364  1368      1
  1369  1364  1369      1
  1370  1369  1370      1
  1371  1369  1371      1
  1372  1369  1372      1
  1373  1370  1373      1
  1374  1370  1374      1
  1375  1370  1375      1
  1376  1375  1376      1
  1377  1375  1377      1
  1378  1375  1378      1
  1379  1376  1379      1
  1380  1376  1380      1
  1381  1376  1381      1
  1382  1381  1382      1
  1383  1381  1383      1
  1384  1381  1384      1
  1385  1382  1385      1
  1386  1382  1386      1
  1387  1382  1387      1
  1388  1387  1388      1
  1389  1387  1389      1
  1390  1387  1390      1
  1391  1388  1391      1
  1392  1388  1392      1
  1393  1388  1393      1
  1394  1393  1394      1
  1395  1393  1395      1
  1396  1393  1396      1
  1397  1394  1397      1
  1398  1394  1398      1
  1399  1394  1399      1
  1400  1399  1400      1
  1401  1399  1401      1
  1402  1399  1402      1
  1403  1400  1403      1
  1404  1400  1404      1
  1405  1400  1405      1
  1406  1405  1406      1
  1407  1405  1407      1
  1408  1405  1408      1
  1409  1406  1409      1
  1410  1406  1410      1
  1411  1406  1411      1
  1412  1411  1412      1
  1413  1411  1413      1
  1414  1411  1414      1
  1415  1412  1415      1
  1416  1412  1416      1
  1417  1412  1417      1
  1418  1417  1418      1
  1419  1417  1419      1
  1420  1417  1420      1
  1421  1418  1421      1
  1422  1418  1422      1
  1423  1418  1423      1
  1424  1423  1424      1
  1425  1423  1425      1
  1426  1423  1426      1
  1427  1424  1427      1
  1428  1424  1428      1
  1429  1424  1429      1
  1430  1429  1430      1
  1431  1429  1431      1
  1432  1429  1432      1
  1433  1430  1433      1
  1434  1430  1434      1
  1435  1430  1435      1
  1436  1435  1436      1
  1437  1435  1437      1
  1438  1435  1438      1
  1439  1436  1439      1
  1440  1436  1440      1
  1441  1436  1441      1
  1442  1441  1442      1
  1443  1441  1443      1
  1444  1441  1444      1
  1445  1442  1445      1
  1446  1442  1446      1
  1447  1442  1447      1
  1448  1447  1448      1
  1449  1447  1449      1
  1450  1447  1450      1
  1451  1448  1451      1
  1452  1448  1452      1
  1453  1448  1453      1
  1454  1453  1454      1
  1455  1453  1455      1
  1456  1453  1456      1
  1457  1454  1457      1
  1458  1454  1458      1
  1459  1454  1459      1
  1460  1459  1460      1
  1461  1459  1461      1
  1462  1459  1462      1
  1463  1460  1463      1
  1464  1460  1464      1
  1465  1460  1465      1
  1466  1465  1466      1
  1467  1465  1467      1
  1468  1465  1468      1
  1469  1466  1469      1
  1470  1466  1470      1
  1471  1466  1471      1
  1472  1471  1472      1
  1473  1471  1473      1
  1474  1471  1474      1
  1475  1472  1475      1
  1476  1472  1476      1
  1477  1472  1477      1
  1478  1477  1478      1
  1479  1477  1479      1
  1480  1477  1480      1
  1481  1478  1481      1
  1482  1478  1482      1
  1483  1478  1483      H
