###
### Created by PolyChef-cpp17 on Thu Feb 27 19:40:30 2025
###

@<TRIPOS>MOLECULE
NO_INFO
452 451 1 0 0
SMALL
USER_CHARGES


@<TRIPOS>ATOM
      1 C           9.2798  122.4687  -39.3449 C.3       0        0    0.0000
      2 C           7.8706  122.3082  -38.7641 C.3       0        0    0.0000
      3 H           9.9271  121.6566  -38.9913 H         0        0    0.0000
      4 H           9.7280  123.4055  -38.9913 H         0        0    0.0000
      5 H           7.3723  123.2841  -38.7109 H         0        0    0.0000
      6 H           7.2610  121.6788  -39.4243 H         0        0    0.0000
      7 C           7.8873  121.6706  -37.3321 C.3       1        0    0.0000
      8 C           9.1649  122.0139  -36.5583 C.3       1        0    0.0000
      9 H           7.0069  122.0206  -36.7789 H         1        0    0.0000
     10 H           7.7867  120.5824  -37.4283 H         1        0    0.0000
     11 H          10.0453  121.8387  -37.1890 H         1        0    0.0000
     12 H           9.1716  123.0794  -36.2970 H         1        0    0.0000
     13 C           9.3086  121.1707  -35.2446 C.3       2        0    0.0000
     14 C          10.2046  121.8579  -34.2083 C.3       2        0    0.0000
     15 H           8.3101  120.9989  -34.8237 H         2        0    0.0000
     16 H           9.7166  120.1849  -35.5000 H         2        0    0.0000
     17 H          11.2596  121.7377  -34.4844 H         2        0    0.0000
     18 H          10.0038  122.9363  -34.1935 H         2        0    0.0000
     19 C           9.9915  121.2844  -32.7650 C.3       3        0    0.0000
     20 C          10.6159  122.1772  -31.6871 C.3       3        0    0.0000
     21 H           8.9152  121.1730  -32.5841 H         3        0    0.0000
     22 H          10.4249  120.2776  -32.7170 H         3        0    0.0000
     23 H          11.7051  122.2139  -31.8135 H         3        0    0.0000
     24 H          10.2516  123.2065  -31.7938 H         3        0    0.0000
     25 C          10.2920  121.6743  -30.2381 C.3       4        0    0.0000
     26 C          10.8905  122.5845  -29.1600 C.3       4        0    0.0000
     27 H           9.2030  121.6161  -30.1192 H         4        0    0.0000
     28 H          10.6764  120.6531  -30.1241 H         4        0    0.0000
     29 H          11.9802  122.6377  -29.2750 H         4        0    0.0000
     30 H          10.5110  123.6071  -29.2780 H         4        0    0.0000
     31 C          10.5590  122.0866  -27.7110 C.3       5        0    0.0000
     32 C          11.1640  122.9925  -26.6329 C.3       5        0    0.0000
     33 H           9.4692  122.0389  -27.5941 H         5        0    0.0000
     34 H          10.9334  121.0620  -27.5949 H         5        0    0.0000
     35 H          12.2537  123.0406  -26.7500 H         5        0    0.0000
     36 H          10.7892  124.0170  -26.7486 H         5        0    0.0000
     37 C          10.8331  122.4942  -25.1839 C.3       6        0    0.0000
     38 C          11.4429  123.3969  -24.1057 C.3       6        0    0.0000
     39 H           9.7434  122.4500  -25.0653 H         6        0    0.0000
     40 H          11.2042  121.4682  -25.0694 H         6        0    0.0000
     41 H          12.5328  123.4394  -24.2230 H         6        0    0.0000
     42 H          11.0733  124.4233  -24.2215 H         6        0    0.0000
     43 C          11.1095  122.9002  -22.6567 C.3       7        0    0.0000
     44 C          12.1842  123.3058  -21.6421 C.3       7        0    0.0000
     45 H          10.1365  123.3093  -22.3578 H         7        0    0.0000
     46 H          11.0007  121.8087  -22.6734 H         7        0    0.0000
     47 H          13.1729  122.9844  -21.9925 H         7        0    0.0000
     48 H          12.2222  124.3984  -21.5509 H         7        0    0.0000
     49 C          11.9257  122.6891  -20.2242 C.3       8        0    0.0000
     50 C          11.9355  123.7504  -19.1186 C.3       8        0    0.0000
     51 H          10.9607  122.1673  -20.2362 H         8        0    0.0000
     52 H          12.6918  121.9299  -20.0238 H         8        0    0.0000
     53 H          12.9684  123.9954  -18.8416 H         8        0    0.0000
     54 H          11.4787  124.6785  -19.4839 H         8        0    0.0000
     55 C          11.1666  123.2795  -17.8362 C.3       9        0    0.0000
     56 C          12.0498  123.3138  -16.5840 C.3       9        0    0.0000
     57 H          10.2884  123.9215  -17.6948 H         9        0    0.0000
     58 H          10.7900  122.2627  -18.0031 H         9        0    0.0000
     59 H          13.0552  122.9454  -16.8226 H         9        0    0.0000
     60 H          12.1675  124.3472  -16.2350 H         9        0    0.0000
     61 C          11.4591  122.4504  -15.4165 C.3      10        0    0.0000
     62 C          11.7682  123.0469  -14.0390 C.3      10        0    0.0000
     63 H          10.3741  122.3643  -15.5544 H        10        0    0.0000
     64 H          11.8671  121.4344  -15.4866 H        10        0    0.0000
     65 H          12.8449  122.9893  -13.8371 H        10        0    0.0000
     66 H          11.5008  124.1108  -14.0212 H        10        0    0.0000
     67 C          10.9982  122.3131  -12.8874 C.3      11        0    0.0000
     68 C          11.4491  122.7786  -11.4986 C.3      11        0    0.0000
     69 H           9.9227  122.4898  -13.0126 H        11        0    0.0000
     70 H          11.1539  121.2321  -12.9908 H        11        0    0.0000
     71 H          12.5317  122.6395  -11.3883 H        11        0    0.0000
     72 H          11.2557  123.8521  -11.3805 H        11        0    0.0000
     73 C          10.7203  122.0042  -10.3468 C.3      12        0    0.0000
     74 C          11.1669  122.4738   -8.9579 C.3      12        0    0.0000
     75 H           9.6375  122.1398  -10.4595 H        12        0    0.0000
     76 H          10.9171  120.9312  -10.4624 H        12        0    0.0000
     77 H          12.2495  122.3370   -8.8447 H        12        0    0.0000
     78 H          10.9712  123.5471   -8.8427 H        12        0    0.0000
     79 C          10.4368  121.7007   -7.8061 C.3      13        0    0.0000
     80 C          10.8814  122.1721   -6.4172 C.3      13        0    0.0000
     81 H           9.3541  121.8358   -7.9204 H        13        0    0.0000
     82 H          10.6341  120.6276   -7.9201 H        13        0    0.0000
     83 H          11.9640  122.0367   -6.3027 H        13        0    0.0000
     84 H          10.6845  123.2454   -6.3033 H        13        0    0.0000
     85 C          10.1509  121.3994   -5.2654 C.3      14        0    0.0000
     86 C          10.5957  121.8707   -3.8765 C.3      14        0    0.0000
     87 H           9.0683  121.5350   -5.3798 H        14        0    0.0000
     88 H          10.3477  120.3262   -5.3793 H        14        0    0.0000
     89 H          11.6796  121.7431   -3.7652 H        14        0    0.0000
     90 H          10.3910  122.9421   -3.7594 H        14        0    0.0000
     91 C           9.8741  121.0896   -2.7247 C.3      15        0    0.0000
     92 C          10.3164  121.5633   -1.3358 C.3      15        0    0.0000
     93 H           8.7901  121.2151   -2.8375 H        15        0    0.0000
     94 H          10.0809  120.0184   -2.8403 H        15        0    0.0000
     95 H          11.4010  121.4419   -1.2247 H        15        0    0.0000
     96 H          10.1055  122.6335   -1.2186 H        15        0    0.0000
     97 C           9.5993  120.7779   -0.1841 C.3      16        0    0.0000
     98 C           9.8624  121.3976    1.1928 C.3      16        0    0.0000
     99 H           8.5215  120.7575   -0.3876 H        16        0    0.0000
    100 H           9.9427  119.7360   -0.1995 H        16        0    0.0000
    101 H           9.4366  120.7618    1.9790 H        16        0    0.0000
    102 H          10.9419  121.4511    1.3812 H        16        0    0.0000
    103 C           9.2549  122.8368    1.3225 C.3      17        0    0.0000
    104 C           9.4548  123.4278    2.7224 C.3      17        0    0.0000
    105 H           9.7198  123.4860    0.5702 H        17        0    0.0000
    106 H           8.1853  122.7921    1.0823 H        17        0    0.0000
    107 H          10.5163  123.6490    2.8892 H        17        0    0.0000
    108 H           8.9172  124.3802    2.8090 H        17        0    0.0000
    109 C           8.9564  122.4617    3.8519 C.3      18        0    0.0000
    110 C           9.3682  122.9397    5.2486 C.3      18        0    0.0000
    111 H           7.8643  122.3785    3.7896 H        18        0    0.0000
    112 H           9.3600  121.4592    3.6632 H        18        0    0.0000
    113 H           8.5327  122.8184    5.9492 H        18        0    0.0000
    114 H          10.1912  122.3226    5.6300 H        18        0    0.0000
    115 C           9.8182  124.4414    5.2540 C.3      19        0    0.0000
    116 C          10.1079  124.9559    6.6683 C.3      19        0    0.0000
    117 H          10.7114  124.5451    4.6256 H        19        0    0.0000
    118 H           9.0322  125.0477    4.7868 H        19        0    0.0000
    119 H          10.9963  124.4573    7.0753 H        19        0    0.0000
    120 H          10.3344  126.0289    6.6392 H        19        0    0.0000
    121 C           8.9043  124.7199    7.6446 C.3      20        0    0.0000
    122 C           9.2510  125.0833    9.0926 C.3      20        0    0.0000
    123 H           8.0490  125.3153    7.3018 H        20        0    0.0000
    124 H           8.6004  123.6675    7.5833 H        20        0    0.0000
    125 H           8.3325  125.2521    9.6683 H        20        0    0.0000
    126 H           9.7759  124.2491    9.5744 H        20        0    0.0000
    127 C          10.1481  126.3655    9.1849 C.3      21        0    0.0000
    128 C          10.4297  126.7743   10.6349 C.3      21        0    0.0000
    129 H          11.0912  126.1759    8.6576 H        21        0    0.0000
    130 H           9.6491  127.1852    8.6531 H        21        0    0.0000
    131 H          11.0875  126.0376   11.1124 H        21        0    0.0000
    132 H          10.9613  127.7337   10.6588 H        21        0    0.0000
    133 C           9.1166  126.9030   11.4816 C.3      22        0    0.0000
    134 C           9.4045  127.0853   12.9758 C.3      22        0    0.0000
    135 H           8.5344  127.7528   11.1042 H        22        0    0.0000
    136 H           8.5044  126.0065   11.3231 H        22        0    0.0000
    137 H           8.4635  127.1865   13.5306 H        22        0    0.0000
    138 H           9.9102  126.1963   13.3727 H        22        0    0.0000
    139 C          10.2963  128.3429   13.2599 C.3      23        0    0.0000
    140 C          10.4778  128.5994   14.7600 C.3      23        0    0.0000
    141 H          11.2733  128.1989   12.7820 H        23        0    0.0000
    142 H           9.8375  129.2171   12.7816 H        23        0    0.0000
    143 H          11.0761  127.7971   15.2092 H        23        0    0.0000
    144 H          11.0329  129.5324   14.9177 H        23        0    0.0000
    145 C           9.1080  128.6925   15.5168 C.3      24        0    0.0000
    146 C           9.2901  128.8366   17.0317 C.3      24        0    0.0000
    147 H           8.5437  129.5467   15.1228 H        24        0    0.0000
    148 H           8.5184  127.7949   15.2925 H        24        0    0.0000
    149 H           8.3531  129.1725   17.4929 H        24        0    0.0000
    150 H           9.5284  127.8624   17.4763 H        24        0    0.0000
    151 C          10.4267  129.8516   17.3997 C.3      25        0    0.0000
    152 C          10.5311  130.0839   18.9110 C.3      25        0    0.0000
    153 H          11.3795  129.4716   17.0107 H        25        0    0.0000
    154 H          10.2328  130.8012   16.8856 H        25        0    0.0000
    155 H          10.8856  129.1724   19.4081 H        25        0    0.0000
    156 H          11.2715  130.8657   19.1211 H        25        0    0.0000
    157 C           9.1596  130.5037   19.5437 C.3      26        0    0.0000
    158 C           9.2581  130.7102   21.0592 C.3      26        0    0.0000
    159 H           8.8146  131.4259   19.0600 H        26        0    0.0000
    160 H           8.4144  129.7312   19.3169 H        26        0    0.0000
    161 H           8.3410  131.1805   21.4351 H        26        0    0.0000
    162 H           9.3457  129.7412   21.5660 H        26        0    0.0000
    163 C          10.4837  131.6021   21.4589 C.3      27        0    0.0000
    164 C          10.5765  131.8166   22.9736 C.3      27        0    0.0000
    165 H          11.4014  131.1283   21.0891 H        27        0    0.0000
    166 H          10.3997  132.5686   20.9466 H        27        0    0.0000
    167 H          10.8900  130.8880   23.4665 H        27        0    0.0000
    168 H          11.3428  132.5681   23.2009 H        27        0    0.0000
    169 C           9.2134  132.2819   23.5924 C.3      28        0    0.0000
    170 C           9.3013  132.4781   25.1099 C.3      28        0    0.0000
    171 H           8.9068  133.2178   23.1092 H        28        0    0.0000
    172 H           8.4440  131.5372   23.3534 H        28        0    0.0000
    173 H           8.3939  132.9725   25.4784 H        28        0    0.0000
    174 H           9.3558  131.5045   25.6126 H        28        0    0.0000
    175 C          10.5474  133.3328   25.5273 C.3      29        0    0.0000
    176 C          10.6178  133.5559   27.0420 C.3      29        0    0.0000
    177 H          11.4562  132.8265   25.1790 H        29        0    0.0000
    178 H          10.5050  134.2975   25.0066 H        29        0    0.0000
    179 H          10.8756  132.6177   27.5488 H        29        0    0.0000
    180 H          11.4143  134.2717   27.2802 H        29        0    0.0000
    181 C           9.2656  134.0912   27.6271 C.3      30        0    0.0000
    182 C           9.3240  134.2781   29.1472 C.3      30        0    0.0000
    183 H           9.0220  135.0436   27.1402 H        30        0    0.0000
    184 H           8.4643  133.3893   27.3649 H        30        0    0.0000
    185 H           8.4434  134.8341   29.4920 H        30        0    0.0000
    186 H           9.2962  133.3022   29.6476 H        30        0    0.0000
    187 C          10.6145  135.0428   29.6027 C.3      31        0    0.0000
    188 C          10.6555  135.2613   31.1191 C.3      31        0    0.0000
    189 H          11.4951  134.4733   29.2807 H        31        0    0.0000
    190 H          10.6559  136.0078   29.0823 H        31        0    0.0000
    191 H          10.8285  134.3071   31.6321 H        31        0    0.0000
    192 H          11.4947  135.9171   31.3821 H        31        0    0.0000
    193 C           9.3292  135.8948   31.6642 C.3      32        0    0.0000
    194 C           9.3569  136.0815   33.1851 C.3      32        0    0.0000
    195 H           9.1693  136.8608   31.1694 H        32        0    0.0000
    196 H           8.4871  135.2518   31.3794 H        32        0    0.0000
    197 H           8.5071  136.6977   33.5040 H        32        0    0.0000
    198 H           9.2477  135.1112   33.6853 H        32        0    0.0000
    199 C          10.6834  136.7570   33.6767 C.3      33        0    0.0000
    200 C          10.6965  136.9753   35.1937 C.3      33        0    0.0000
    201 H          11.5316  136.1277   33.3799 H        33        0    0.0000
    202 H          10.8055  137.7157   33.1576 H        33        0    0.0000
    203 H          10.7893  136.0126   35.7115 H        33        0    0.0000
    204 H          11.5709  137.5727   35.4802 H        33        0    0.0000
    205 C           9.4018  137.6991   35.7009 C.3      34        0    0.0000
    206 C           9.3975  137.8830   37.2225 C.3      34        0    0.0000
    207 H           9.3240  138.6740   35.2039 H        34        0    0.0000
    208 H           8.5260  137.1162   35.3900 H        34        0    0.0000
    209 H           8.5860  138.5598   37.5173 H        34        0    0.0000
    210 H           9.2026  136.9233   37.7169 H        34        0    0.0000
    211 C          10.7546  138.4593   37.7551 C.3      35        0    0.0000
    212 C          10.7368  138.6798   39.2717 C.3      35        0    0.0000
    213 H          11.5626  137.7681   37.4850 H        35        0    0.0000
    214 H          10.9637  139.4050   37.2399 H        35        0    0.0000
    215 H          10.7395  137.7142   39.7923 H        35        0    0.0000
    216 H          11.6448  139.2095   39.5855 H        35        0    0.0000
    217 C           9.4858  139.5016   39.7379 C.3      36        0    0.0000
    218 C           9.4437  139.6824   41.2592 C.3      36        0    0.0000
    219 H           9.5014  140.4806   39.2430 H        36        0    0.0000
    220 H           8.5784  138.9895   39.3946 H        36        0    0.0000
    221 H           8.6828  140.4253   41.5288 H        36        0    0.0000
    222 H           9.1506  138.7418   41.7419 H        36        0    0.0000
    223 C          10.8253  140.1401   41.8416 C.3      37        0    0.0000
    224 C          10.7703  140.3683   43.3562 C.3      37        0    0.0000
    225 H          11.5791  139.3795   41.6030 H        37        0    0.0000
    226 H          11.1355  141.0615   41.3334 H        37        0    0.0000
    227 H          10.6613  139.4092   43.8775 H        37        0    0.0000
    228 H          11.7118  140.8109   43.7044 H        37        0    0.0000
    229 C           9.5861  141.3072   43.7729 C.3      38        0    0.0000
    230 C           9.5005  141.4949   45.2916 C.3      38        0    0.0000
    231 H           9.7152  142.2790   43.2805 H        38        0    0.0000
    232 H           8.6483  140.8835   43.3928 H        38        0    0.0000
    233 H           8.8069  142.3104   45.5313 H        38        0    0.0000
    234 H           9.0960  140.5893   45.7604 H        38        0    0.0000
    235 C          10.8960  141.8143   45.9304 C.3      39        0    0.0000
    236 C          10.8031  142.0471   47.4424 C.3      39        0    0.0000
    237 H          11.5801  140.9832   45.7190 H        39        0    0.0000
    238 H          11.3155  142.7007   45.4385 H        39        0    0.0000
    239 H          10.5824  141.1028   47.9555 H        39        0    0.0000
    240 H          11.7681  142.3976   47.8290 H        39        0    0.0000
    241 C           9.6985  143.0950   47.8155 C.3      40        0    0.0000
    242 C           9.5713  143.2905   49.3303 C.3      40        0    0.0000
    243 H           9.9391  144.0498   47.3318 H        40        0    0.0000
    244 H           8.7402  142.7627   47.3974 H        40        0    0.0000
    245 H           8.9495  144.1684   49.5454 H        40        0    0.0000
    246 H           9.0644  142.4276   49.7798 H        40        0    0.0000
    247 C          10.9646  143.4759   50.0244 C.3      41        0    0.0000
    248 C          10.8345  143.7236   51.5313 C.3      41        0    0.0000
    249 H          11.5727  142.5813   49.8414 H        41        0    0.0000
    250 H          11.4877  144.3150   49.5491 H        41        0    0.0000
    251 H          10.4984  142.8090   52.0353 H        41        0    0.0000
    252 H          11.8136  143.9762   51.9569 H        41        0    0.0000
    253 C           9.8278  144.8799   51.8586 C.3      42        0    0.0000
    254 C           9.6512  145.0867   53.3669 C.3      42        0    0.0000
    255 H          10.1880  145.8050   51.3917 H        42        0    0.0000
    256 H           8.8609  144.6487   51.3948 H        42        0    0.0000
    257 H           9.1237  146.0294   53.5581 H        42        0    0.0000
    258 H           9.0284  144.2867   53.7859 H        42        0    0.0000
    259 C          11.0216  145.1112   54.1277 C.3      43        0    0.0000
    260 C          10.8486  145.3748   55.6276 C.3      43        0    0.0000
    261 H          11.5304  144.1521   53.9706 H        43        0    0.0000
    262 H          11.6601  145.8835   53.6813 H        43        0    0.0000
    263 H          10.3810  144.5077   56.1105 H        43        0    0.0000
    264 H          11.8289  145.5086   56.1015 H        43        0    0.0000
    265 C           9.9730  146.6439   55.9107 C.3      44        0    0.0000
    266 C           9.7472  146.8713   57.4095 C.3      44        0    0.0000
    267 H          10.4647  147.5187   55.4674 H        44        0    0.0000
    268 H           9.0097  146.5304   55.3981 H        44        0    0.0000
    269 H           9.3299  147.8715   57.5795 H        44        0    0.0000
    270 H           9.0110  146.1535   57.7921 H        44        0    0.0000
    271 C          11.0702  146.7282   58.2381 C.3      45        0    0.0000
    272 C          10.8575  147.0215   59.7273 C.3      45        0    0.0000
    273 H          11.4614  145.7116   58.1070 H        45        0    0.0000
    274 H          11.8224  147.4110   57.8239 H        45        0    0.0000
    275 H          10.2571  146.2258   60.1854 H        45        0    0.0000
    276 H          11.8217  147.0296   60.2505 H        45        0    0.0000
    277 C          10.1417  148.3956   59.9658 C.3      46        0    0.0000
    278 C           9.8595  148.6537   61.4500 C.3      46        0    0.0000
    279 H          10.7697  149.1971   59.5574 H        46        0    0.0000
    280 H           9.2039  148.4093   59.3967 H        46        0    0.0000
    281 H           9.5822  149.7040   61.6031 H        46        0    0.0000
    282 H           9.0048  148.0508   61.7808 H        46        0    0.0000
    283 C          11.0943  148.3198   62.3563 C.3      47        0    0.0000
    284 C          10.8369  148.6452   63.8317 C.3      47        0    0.0000
    285 H          11.3390  147.2564   62.2427 H        47        0    0.0000
    286 H          11.9625  148.8834   61.9927 H        47        0    0.0000
    287 H          10.0966  147.9500   64.2466 H        47        0    0.0000
    288 H          11.7572  148.5093   64.4130 H        47        0    0.0000
    289 C          10.3224  150.1120   64.0355 C.3      48        0    0.0000
    290 C           9.9864  150.4113   65.5006 C.3      48        0    0.0000
    291 H          11.0894  150.8089   63.6756 H        48        0    0.0000
    292 H           9.4364  150.2665   63.4073 H        48        0    0.0000
    293 H           9.8670  151.4921   65.6460 H        48        0    0.0000
    294 H           9.0280  149.9496   65.7687 H        48        0    0.0000
    295 C          11.0911  149.8885   66.4823 C.3      49        0    0.0000
    296 C          10.7941  150.2567   67.9402 C.3      49        0    0.0000
    297 H          11.1700  148.7992   66.3781 H        49        0    0.0000
    298 H          12.0596  150.3050   66.1789 H        49        0    0.0000
    299 H           9.9247  149.6933   68.3008 H        49        0    0.0000
    300 H          11.6399  149.9741   68.5793 H        49        0    0.0000
    301 C          10.5140  151.7885   68.1208 C.3      50        0    0.0000
    302 C          10.1258  152.1422   69.5607 C.3      50        0    0.0000
    303 H          11.4091  152.3491   67.8240 H        50        0    0.0000
    304 H           9.7135  152.0852   67.4317 H        50        0    0.0000
    305 H          10.1863  153.2272   69.7109 H        50        0    0.0000
    306 H           9.0841  151.8554   69.7507 H        50        0    0.0000
    307 C          11.0452  151.4342   70.6148 C.3      51        0    0.0000
    308 C          10.7145  151.8564   72.0505 C.3      51        0    0.0000
    309 H          10.9350  150.3480   70.5072 H        51        0    0.0000
    310 H          12.0920  151.6689   70.3853 H        51        0    0.0000
    311 H           9.7323  151.4635   72.3414 H        51        0    0.0000
    312 H          11.4447  151.4258   72.7469 H        51        0    0.0000
    313 C          10.7075  153.4142   72.2251 C.3      52        0    0.0000
    314 C          10.2591  153.8396   73.6276 C.3      52        0    0.0000
    315 H          11.7146  153.7976   72.0197 H        52        0    0.0000
    316 H          10.0437  153.8518   71.4691 H        52        0    0.0000
    317 H          10.5333  154.8862   73.8089 H        52        0    0.0000
    318 H           9.1664  153.7819   73.7068 H        52        0    0.0000
    319 C          10.8948  152.9490   74.7502 C.3      53        0    0.0000
    320 C          10.5570  153.4574   76.1560 C.3      53        0    0.0000
    321 H          10.5395  151.9183   74.6275 H        53        0    0.0000
    322 H          11.9826  152.9260   74.6097 H        53        0    0.0000
    323 H           9.4845  153.3362   76.3522 H        53        0    0.0000
    324 H          11.0847  152.8593   76.9092 H        53        0    0.0000
    325 C          10.9389  154.9654   76.3500 C.3      54        0    0.0000
    326 C          10.5690  155.4836   77.7442 C.3      54        0    0.0000
    327 H          12.0163  155.0822   76.1790 H        54        0    0.0000
    328 H          10.4315  155.5605   75.5807 H        54        0    0.0000
    329 H          11.0216  156.4688   77.9117 H        54        0    0.0000
    330 H           9.4829  155.6190   77.8192 H        54        0    0.0000
    331 C          11.0368  154.5124   78.8824 C.3      55        0    0.0000
    332 C          10.5925  154.9873   80.2702 C.3      55        0    0.0000
    333 H          10.6350  153.5117   78.6807 H        55        0    0.0000
    334 H          12.1299  154.4261   78.8464 H        55        0    0.0000
    335 H           9.5261  154.7754   80.4167 H        55        0    0.0000
    336 H          11.1334  154.4342   81.0481 H        55        0    0.0000
    337 C          10.8361  156.5217   80.4793 C.3      56        0    0.0000
    338 C          10.4318  156.9882   81.8821 C.3      56        0    0.0000
    339 H          11.8967  156.7388   80.3018 H        56        0    0.0000
    340 H          10.2698  157.0762   79.7207 H        56        0    0.0000
    341 H          10.7410  158.0294   82.0360 H        56        0    0.0000
    342 H           9.3399  156.9652   81.9861 H        56        0    0.0000
    343 C          11.0654  156.1012   83.0087 C.3      57        0    0.0000
    344 C          10.3670  156.2916   84.3597 C.3      57        0    0.0000
    345 H          11.0117  155.0491   82.7026 H        57        0    0.0000
    346 H          12.1303  156.3495   83.0974 H        57        0    0.0000
    347 H          10.5249  157.3144   84.7238 H        57        0    0.0000
    348 H           9.2838  156.1618   84.2448 H        57        0    0.0000
    349 C          10.8846  155.2840   85.4433 C.3      58        0    0.0000
    350 C          10.3045  155.5755   86.8317 C.3      58        0    0.0000
    351 H          10.6225  154.2651   85.1325 H        58        0    0.0000
    352 H          11.9801  155.3315   85.4758 H        58        0    0.0000
    353 H           9.9441  156.6106   86.8790 H        58        0    0.0000
    354 H           9.4370  154.9309   87.0198 H        58        0    0.0000
    355 C          11.3558  155.3538   87.9733 C.3      59        0    0.0000
    356 C          10.7700  155.6259   89.3632 C.3      59        0    0.0000
    357 H          11.7271  154.3230   87.9167 H        59        0    0.0000
    358 H          12.2169  156.0092   87.7931 H        59        0    0.0000
    359 H          11.0186  156.6453   89.6832 H        59        0    0.0000
    360 H           9.6752  155.5648   89.3285 H        59        0    0.0000
    361 C          11.2986  154.6156   90.4389 C.3      60        0    0.0000
    362 C          10.7783  154.9380   91.8440 C.3      60        0    0.0000
    363 H          10.9970  153.6012   90.1497 H        60        0    0.0000
    364 H          12.3955  154.6324   90.4310 H        60        0    0.0000
    365 H           9.6999  154.7439   91.8995 H        60        0    0.0000
    366 H          11.2551  154.2809   92.5817 H        60        0    0.0000
    367 C          11.0446  156.4290   92.2485 C.3      61        0    0.0000
    368 C          10.5234  156.7518   93.6532 C.3      61        0    0.0000
    369 H          12.1230  156.6230   92.1937 H        61        0    0.0000
    370 H          10.5684  157.0862   91.5103 H        61        0    0.0000
    371 H          10.8729  157.7437   93.9654 H        61        0    0.0000
    372 H           9.4270  156.7914   93.6477 H        61        0    0.0000
    373 C          10.9855  155.6957   94.7156 C.3      62        0    0.0000
    374 C          10.2532  155.8577   96.0522 C.3      62        0    0.0000
    375 H          10.8141  154.6900   94.3122 H        62        0    0.0000
    376 H          12.0678  155.7949   94.8651 H        62        0    0.0000
    377 H           9.8460  156.8728   96.1374 H        62        0    0.0000
    378 H           9.3991  155.1707   96.0988 H        62        0    0.0000
    379 C          11.1894  155.5841   97.2795 C.3      63        0    0.0000
    380 C          10.4605  155.7588   98.6163 C.3      63        0    0.0000
    381 H          11.5890  154.5656   97.1992 H        63        0    0.0000
    382 H          12.0484  156.2646   97.2276 H        63        0    0.0000
    383 H          10.0185  156.7612   98.6756 H        63        0    0.0000
    384 H           9.6313  155.0441   98.6889 H        63        0    0.0000
    385 C          11.4136  155.5534   99.8439 C.3      64        0    0.0000
    386 C          10.6842  155.7260  101.1808 C.3      64        0    0.0000
    387 H          11.8567  154.5517   99.7838 H        64        0    0.0000
    388 H          12.2419  156.2692   99.7722 H        64        0    0.0000
    389 H          10.2677  156.7383  101.2542 H        64        0    0.0000
    390 H           9.8367  155.0317  101.2393 H        64        0    0.0000
    391 C          11.6269  155.4772  102.4083 C.3      65        0    0.0000
    392 C          10.8989  155.6552  103.7453 C.3      65        0    0.0000
    393 H          12.0402  154.4634  102.3371 H        65        0    0.0000
    394 H          12.4764  156.1687  102.3476 H        65        0    0.0000
    395 H          10.4519  156.6555  103.7999 H        65        0    0.0000
    396 H          10.0735  154.9367  103.8227 H        65        0    0.0000
    397 C          11.8546  155.4610  104.9726 C.3      66        0    0.0000
    398 C          11.1252  155.6326  106.3096 C.3      66        0    0.0000
    399 H          12.3052  154.4624  104.9154 H        66        0    0.0000
    400 H          12.6775  156.1827  104.8977 H        66        0    0.0000
    401 H          11.7803  155.3324  107.1368 H        66        0    0.0000
    402 H          10.8785  156.6894  106.4707 H        66        0    0.0000
    403 C           9.8054  154.7895  106.3789 C.3      67        0    0.0000
    404 C           9.0866  154.9451  107.7235 C.3      67        0    0.0000
    405 H           9.1440  155.1001  105.5606 H        67        0    0.0000
    406 H          10.0501  153.7346  106.2030 H        67        0    0.0000
    407 H           8.6460  155.9469  107.8008 H        67        0    0.0000
    408 H           8.2574  154.2301  107.7918 H        67        0    0.0000
    409 C          10.0485  154.7211  108.9409 C.3      68        0    0.0000
    410 C           9.5134  155.3568  110.2287 C.3      68        0    0.0000
    411 H          10.1915  153.6429  109.0848 H        68        0    0.0000
    412 H          11.0326  155.1394  108.6956 H        68        0    0.0000
    413 H           9.1453  156.3697  110.0235 H        68        0    0.0000
    414 H           8.6587  154.7813  110.6053 H        68        0    0.0000
    415 C          10.6049  155.4337  111.3514 C.3      69        0    0.0000
    416 C          10.0176  155.8480  112.7050 C.3      69        0    0.0000
    417 H          11.0936  154.4552  111.4370 H        69        0    0.0000
    418 H          11.3795  156.1468  111.0432 H        69        0    0.0000
    419 H           9.9764  156.9418  112.7783 H        69        0    0.0000
    420 H           8.9853  155.4872  112.7935 H        69        0    0.0000
    421 C          10.8522  155.2920  113.9099 C.3      70        0    0.0000
    422 C          10.2620  155.7020  115.2637 C.3      70        0    0.0000
    423 H          10.8966  154.1984  113.8346 H        70        0    0.0000
    424 H          11.8836  155.6559  113.8235 H        70        0    0.0000
    425 H          10.2338  156.7956  115.3460 H        70        0    0.0000
    426 H           9.2249  155.3533  115.3430 H        70        0    0.0000
    427 C          11.0825  155.1255  116.4686 C.3      71        0    0.0000
    428 C          10.4918  155.5348  117.8223 C.3      71        0    0.0000
    429 H          11.1113  154.0320  116.3859 H        71        0    0.0000
    430 H          12.1195  155.4748  116.3896 H        71        0    0.0000
    431 H           9.5557  154.9923  118.0038 H        71        0    0.0000
    432 H          11.1785  155.2575  118.6317 H        71        0    0.0000
    433 C          10.2079  157.0743  117.9057 C.3      72        0    0.0000
    434 C           9.6045  157.4814  119.2544 C.3      72        0    0.0000
    435 H          11.1460  157.6166  117.7342 H        72        0    0.0000
    436 H           9.5291  157.3533  117.0903 H        72        0    0.0000
    437 H          10.2368  158.2371  119.7367 H        72        0    0.0000
    438 H           8.6213  157.9438  119.1024 H        72        0    0.0000
    439 C           9.4444  156.2618  120.2261 C.3      73        0    0.0000
    440 C           9.1524  156.7002  121.6654 C.3      73        0    0.0000
    441 H           8.6351  155.6195  119.8571 H        73        0    0.0000
    442 H          10.3622  155.6616  120.1945 H        73        0    0.0000
    443 H           8.7597  157.7245  121.6743 H        73        0    0.0000
    444 H           8.3756  156.0611  122.1031 H        73        0    0.0000
    445 C          10.4278  156.6402  122.5751 C.3      74        0    0.0000
    446 C          10.1189  156.0933  123.9731 C.3      74        0    0.0000
    447 H          11.1829  156.0135  122.0844 H        74        0    0.0000
    448 H          10.8556  157.6475  122.6512 H        74        0    0.0000
    449 H           9.3638  156.7200  124.4638 H        74        0    0.0000
    450 H           9.6911  155.0860  123.8970 H        74        0    0.0000
    451 H          11.0057  156.0516  124.6056 H        74        0    0.0000
    452 H           9.2798  122.4687  -40.4349 H         0        0    0.0000
@<TRIPOS>BOND
     1     1     2      1
     2     1     3      1
     3     1     4      1
     4     1   452      H
     5     2     5      1
     6     2     6      1
     7     2     7      1
     8     7     8      1
     9     7     9      1
    10     7    10      1
    11     8    11      1
    12     8    12      1
    13     8    13      1
    14    13    14      1
    15    13    15      1
    16    13    16      1
    17    14    17      1
    18    14    18      1
    19    14    19      1
    20    19    20      1
    21    19    21      1
    22    19    22      1
    23    20    23      1
    24    20    24      1
    25    20    25      1
    26    25    26      1
    27    25    27      1
    28    25    28      1
    29    26    29      1
    30    26    30      1
    31    26    31      1
    32    31    32      1
    33    31    33      1
    34    31    34      1
    35    32    35      1
    36    32    36      1
    37    32    37      1
    38    37    38      1
    39    37    39      1
    40    37    40      1
    41    38    41      1
    42    38    42      1
    43    38    43      1
    44    43    44      1
    45    43    45      1
    46    43    46      1
    47    44    47      1
    48    44    48      1
    49    44    49      1
    50    49    50      1
    51    49    51      1
    52    49    52      1
    53    50    53      1
    54    50    54      1
    55    50    55      1
    56    55    56      1
    57    55    57      1
    58    55    58      1
    59    56    59      1
    60    56    60      1
    61    56    61      1
    62    61    62      1
    63    61    63      1
    64    61    64      1
    65    62    65      1
    66    62    66      1
    67    62    67      1
    68    67    68      1
    69    67    69      1
    70    67    70      1
    71    68    71      1
    72    68    72      1
    73    68    73      1
    74    73    74      1
    75    73    75      1
    76    73    76      1
    77    74    77      1
    78    74    78      1
    79    74    79      1
    80    79    80      1
    81    79    81      1
    82    79    82      1
    83    80    83      1
    84    80    84      1
    85    80    85      1
    86    85    86      1
    87    85    87      1
    88    85    88      1
    89    86    89      1
    90    86    90      1
    91    86    91      1
    92    91    92      1
    93    91    93      1
    94    91    94      1
    95    92    95      1
    96    92    96      1
    97    92    97      1
    98    97    98      1
    99    97    99      1
   100    97   100      1
   101    98   101      1
   102    98   102      1
   103    98   103      1
   104   103   104      1
   105   103   105      1
   106   103   106      1
   107   104   107      1
   108   104   108      1
   109   104   109      1
   110   109   110      1
   111   109   111      1
   112   109   112      1
   113   110   113      1
   114   110   114      1
   115   110   115      1
   116   115   116      1
   117   115   117      1
   118   115   118      1
   119   116   119      1
   120   116   120      1
   121   116   121      1
   122   121   122      1
   123   121   123      1
   124   121   124      1
   125   122   125      1
   126   122   126      1
   127   122   127      1
   128   127   128      1
   129   127   129      1
   130   127   130      1
   131   128   131      1
   132   128   132      1
   133   128   133      1
   134   133   134      1
   135   133   135      1
   136   133   136      1
   137   134   137      1
   138   134   138      1
   139   134   139      1
   140   139   140      1
   141   139   141      1
   142   139   142      1
   143   140   143      1
   144   140   144      1
   145   140   145      1
   146   145   146      1
   147   145   147      1
   148   145   148      1
   149   146   149      1
   150   146   150      1
   151   146   151      1
   152   151   152      1
   153   151   153      1
   154   151   154      1
   155   152   155      1
   156   152   156      1
   157   152   157      1
   158   157   158      1
   159   157   159      1
   160   157   160      1
   161   158   161      1
   162   158   162      1
   163   158   163      1
   164   163   164      1
   165   163   165      1
   166   163   166      1
   167   164   167      1
   168   164   168      1
   169   164   169      1
   170   169   170      1
   171   169   171      1
   172   169   172      1
   173   170   173      1
   174   170   174      1
   175   170   175      1
   176   175   176      1
   177   175   177      1
   178   175   178      1
   179   176   179      1
   180   176   180      1
   181   176   181      1
   182   181   182      1
   183   181   183      1
   184   181   184      1
   185   182   185      1
   186   182   186      1
   187   182   187      1
   188   187   188      1
   189   187   189      1
   190   187   190      1
   191   188   191      1
   192   188   192      1
   193   188   193      1
   194   193   194      1
   195   193   195      1
   196   193   196      1
   197   194   197      1
   198   194   198      1
   199   194   199      1
   200   199   200      1
   201   199   201      1
   202   199   202      1
   203   200   203      1
   204   200   204      1
   205   200   205      1
   206   205   206      1
   207   205   207      1
   208   205   208      1
   209   206   209      1
   210   206   210      1
   211   206   211      1
   212   211   212      1
   213   211   213      1
   214   211   214      1
   215   212   215      1
   216   212   216      1
   217   212   217      1
   218   217   218      1
   219   217   219      1
   220   217   220      1
   221   218   221      1
   222   218   222      1
   223   218   223      1
   224   223   224      1
   225   223   225      1
   226   223   226      1
   227   224   227      1
   228   224   228      1
   229   224   229      1
   230   229   230      1
   231   229   231      1
   232   229   232      1
   233   230   233      1
   234   230   234      1
   235   230   235      1
   236   235   236      1
   237   235   237      1
   238   235   238      1
   239   236   239      1
   240   236   240      1
   241   236   241      1
   242   241   242      1
   243   241   243      1
   244   241   244      1
   245   242   245      1
   246   242   246      1
   247   242   247      1
   248   247   248      1
   249   247   249      1
   250   247   250      1
   251   248   251      1
   252   248   252      1
   253   248   253      1
   254   253   254      1
   255   253   255      1
   256   253   256      1
   257   254   257      1
   258   254   258      1
   259   254   259      1
   260   259   260      1
   261   259   261      1
   262   259   262      1
   263   260   263      1
   264   260   264      1
   265   260   265      1
   266   265   266      1
   267   265   267      1
   268   265   268      1
   269   266   269      1
   270   266   270      1
   271   266   271      1
   272   271   272      1
   273   271   273      1
   274   271   274      1
   275   272   275      1
   276   272   276      1
   277   272   277      1
   278   277   278      1
   279   277   279      1
   280   277   280      1
   281   278   281      1
   282   278   282      1
   283   278   283      1
   284   283   284      1
   285   283   285      1
   286   283   286      1
   287   284   287      1
   288   284   288      1
   289   284   289      1
   290   289   290      1
   291   289   291      1
   292   289   292      1
   293   290   293      1
   294   290   294      1
   295   290   295      1
   296   295   296      1
   297   295   297      1
   298   295   298      1
   299   296   299      1
   300   296   300      1
   301   296   301      1
   302   301   302      1
   303   301   303      1
   304   301   304      1
   305   302   305      1
   306   302   306      1
   307   302   307      1
   308   307   308      1
   309   307   309      1
   310   307   310      1
   311   308   311      1
   312   308   312      1
   313   308   313      1
   314   313   314      1
   315   313   315      1
   316   313   316      1
   317   314   317      1
   318   314   318      1
   319   314   319      1
   320   319   320      1
   321   319   321      1
   322   319   322      1
   323   320   323      1
   324   320   324      1
   325   320   325      1
   326   325   326      1
   327   325   327      1
   328   325   328      1
   329   326   329      1
   330   326   330      1
   331   326   331      1
   332   331   332      1
   333   331   333      1
   334   331   334      1
   335   332   335      1
   336   332   336      1
   337   332   337      1
   338   337   338      1
   339   337   339      1
   340   337   340      1
   341   338   341      1
   342   338   342      1
   343   338   343      1
   344   343   344      1
   345   343   345      1
   346   343   346      1
   347   344   347      1
   348   344   348      1
   349   344   349      1
   350   349   350      1
   351   349   351      1
   352   349   352      1
   353   350   353      1
   354   350   354      1
   355   350   355      1
   356   355   356      1
   357   355   357      1
   358   355   358      1
   359   356   359      1
   360   356   360      1
   361   356   361      1
   362   361   362      1
   363   361   363      1
   364   361   364      1
   365   362   365      1
   366   362   366      1
   367   362   367      1
   368   367   368      1
   369   367   369      1
   370   367   370      1
   371   368   371      1
   372   368   372      1
   373   368   373      1
   374   373   374      1
   375   373   375      1
   376   373   376      1
   377   374   377      1
   378   374   378      1
   379   374   379      1
   380   379   380      1
   381   379   381      1
   382   379   382      1
   383   380   383      1
   384   380   384      1
   385   380   385      1
   386   385   386      1
   387   385   387      1
   388   385   388      1
   389   386   389      1
   390   386   390      1
   391   386   391      1
   392   391   392      1
   393   391   393      1
   394   391   394      1
   395   392   395      1
   396   392   396      1
   397   392   397      1
   398   397   398      1
   399   397   399      1
   400   397   400      1
   401   398   401      1
   402   398   402      1
   403   398   403      1
   404   403   404      1
   405   403   405      1
   406   403   406      1
   407   404   407      1
   408   404   408      1
   409   404   409      1
   410   409   410      1
   411   409   411      1
   412   409   412      1
   413   410   413      1
   414   410   414      1
   415   410   415      1
   416   415   416      1
   417   415   417      1
   418   415   418      1
   419   416   419      1
   420   416   420      1
   421   416   421      1
   422   421   422      1
   423   421   423      1
   424   421   424      1
   425   422   425      1
   426   422   426      1
   427   422   427      1
   428   427   428      1
   429   427   429      1
   430   427   430      1
   431   428   431      1
   432   428   432      1
   433   428   433      1
   434   433   434      1
   435   433   435      1
   436   433   436      1
   437   434   437      1
   438   434   438      1
   439   434   439      1
   440   439   440      1
   441   439   441      1
   442   439   442      1
   443   440   443      1
   444   440   444      1
   445   440   445      1
   446   445   446      1
   447   445   447      1
   448   445   448      1
   449   446   449      1
   450   446   450      1
   451   446   451      H
