###
### Created by PolyChef-cpp17 on Thu Feb 27 19:40:28 2025
###

@<TRIPOS>MOLECULE
NO_INFO
284 283 1 0 0
SMALL
USER_CHARGES


@<TRIPOS>ATOM
      1 C         169.2798  157.1087  -39.3449 C.3       0        0    0.0000
      2 C         167.8706  156.9482  -38.7641 C.3       0        0    0.0000
      3 H         169.9271  156.2966  -38.9914 H         0        0    0.0000
      4 H         169.7280  158.0455  -38.9913 H         0        0    0.0000
      5 H         167.3718  157.9239  -38.7120 H         0        0    0.0000
      6 H         167.2614  156.3178  -39.4237 H         0        0    0.0000
      7 C         167.8874  156.3122  -37.3314 C.3       1        0    0.0000
      8 C         169.1653  156.6561  -36.5582 C.3       1        0    0.0000
      9 H         167.0072  156.6629  -36.7784 H         1        0    0.0000
     10 H         167.7867  155.2239  -37.4264 H         1        0    0.0000
     11 H         170.0453  156.4831  -37.1900 H         1        0    0.0000
     12 H         169.1707  157.7212  -36.2952 H         1        0    0.0000
     13 C         169.3113  155.8109  -35.2460 C.3       2        0    0.0000
     14 C         170.2035  156.5000  -34.2076 C.3       2        0    0.0000
     15 H         168.3132  155.6341  -34.8264 H         2        0    0.0000
     16 H         169.7238  154.8274  -35.5030 H         2        0    0.0000
     17 H         171.2592  156.3841  -34.4825 H         2        0    0.0000
     18 H         169.9986  157.5776  -34.1914 H         2        0    0.0000
     19 C         169.9908  155.9234  -32.7654 C.3       3        0    0.0000
     20 C         170.6112  156.8167  -31.6855 C.3       3        0    0.0000
     21 H         168.9147  155.8083  -32.5858 H         3        0    0.0000
     22 H         170.4275  154.9181  -32.7185 H         3        0    0.0000
     23 H         171.7004  156.8564  -31.8101 H         3        0    0.0000
     24 H         170.2442  157.8451  -31.7915 H         3        0    0.0000
     25 C         170.2864  156.3111  -30.2376 C.3       4        0    0.0000
     26 C         170.8865  157.2179  -29.1574 C.3       4        0    0.0000
     27 H         169.1973  156.2545  -30.1188 H         4        0    0.0000
     28 H         170.6691  155.2890  -30.1258 H         4        0    0.0000
     29 H         171.9760  157.2716  -29.2740 H         4        0    0.0000
     30 H         170.5067  158.2408  -29.2715 H         4        0    0.0000
     31 C         170.5574  156.7152  -27.7095 C.3       5        0    0.0000
     32 C         171.1395  157.6337  -26.6294 C.3       5        0    0.0000
     33 H         169.4681  156.6468  -27.5981 H         5        0    0.0000
     34 H         170.9508  155.6981  -27.5904 H         5        0    0.0000
     35 H         172.2289  157.7008  -26.7398 H         5        0    0.0000
     36 H         170.7474  158.6512  -26.7497 H         5        0    0.0000
     37 C         170.8082  157.1324  -25.1816 C.3       6        0    0.0000
     38 C         171.4258  158.0273  -24.1015 C.3       6        0    0.0000
     39 H         169.7184  157.0948  -25.0611 H         6        0    0.0000
     40 H         171.1730  156.1036  -25.0715 H         6        0    0.0000
     41 H         172.5148  158.0717  -24.2272 H         6        0    0.0000
     42 H         171.0545  159.0543  -24.2063 H         6        0    0.0000
     43 C         171.1046  157.5192  -22.6537 C.3       7        0    0.0000
     44 C         171.0278  158.6657  -21.6394 C.3       7        0    0.0000
     45 H         170.1548  156.9707  -22.6741 H         7        0    0.0000
     46 H         171.8768  156.8009  -22.3516 H         7        0    0.0000
     47 H         172.0112  159.1401  -21.5327 H         7        0    0.0000
     48 H         170.3412  159.4416  -22.0001 H         7        0    0.0000
     49 C         170.5453  158.1800  -20.2292 C.3       8        0    0.0000
     50 C         171.5043  158.6013  -19.1103 C.3       8        0    0.0000
     51 H         169.5439  158.5857  -20.0390 H         8        0    0.0000
     52 H         170.4446  157.0877  -20.2468 H         8        0    0.0000
     53 H         172.5416  158.5463  -19.4633 H         8        0    0.0000
     54 H         171.3214  159.6466  -18.8319 H         8        0    0.0000
     55 C         171.3571  157.7049  -17.8327 C.3       9        0    0.0000
     56 C         171.0889  158.5319  -16.5706 C.3       9        0    0.0000
     57 H         170.5409  156.9900  -17.9945 H         9        0    0.0000
     58 H         172.2731  157.1142  -17.7078 H         9        0    0.0000
     59 H         172.0104  159.0302  -16.2444 H         9        0    0.0000
     60 H         170.3621  159.3245  -16.7876 H         9        0    0.0000
     61 C         170.5436  157.6555  -15.3907 C.3      10        0    0.0000
     62 C         170.9705  158.1948  -14.0211 C.3      10        0    0.0000
     63 H         169.4491  157.6170  -15.4554 H        10        0    0.0000
     64 H         170.9032  156.6270  -15.5187 H        10        0    0.0000
     65 H         172.0535  158.3694  -14.0064 H        10        0    0.0000
     66 H         170.4925  159.1642  -13.8329 H        10        0    0.0000
     67 C         170.6010  157.2144  -12.8550 C.3      11        0    0.0000
     68 C         170.8509  157.8327  -11.4751 C.3      11        0    0.0000
     69 H         169.5463  156.9289  -12.9539 H        11        0    0.0000
     70 H         171.1882  156.2945  -12.9670 H        11        0    0.0000
     71 H         171.9127  158.0844  -11.3623 H        11        0    0.0000
     72 H         170.2923  158.7718  -11.3769 H        11        0    0.0000
     73 C         170.4328  156.8719  -10.3091 C.3      12        0    0.0000
     74 C         170.6896  157.4872   -8.9290 C.3      12        0    0.0000
     75 H         169.3696  156.6245  -10.4187 H        12        0    0.0000
     76 H         170.9873  155.9307  -10.4104 H        12        0    0.0000
     77 H         171.7521  157.7379   -8.8208 H        12        0    0.0000
     78 H         170.1322  158.4265   -8.8264 H        12        0    0.0000
     79 C         170.2763  156.5244   -7.7630 C.3      13        0    0.0000
     80 C         170.5407  157.1364   -6.3830 C.3      13        0    0.0000
     81 H         169.2124  156.2784   -7.8678 H        13        0    0.0000
     82 H         170.8293  155.5828   -7.8691 H        13        0    0.0000
     83 H         171.6040  157.3863   -6.2797 H        13        0    0.0000
     84 H         169.9844  158.0759   -6.2753 H        13        0    0.0000
     85 C         170.1329  156.1713   -5.2169 C.3      14        0    0.0000
     86 C         170.4271  156.7704   -3.8373 C.3      14        0    0.0000
     87 H         169.0643  155.9402   -5.3066 H        14        0    0.0000
     88 H         170.6715  155.2232   -5.3380 H        14        0    0.0000
     89 H         171.4998  156.9783   -3.7384 H        14        0    0.0000
     90 H         169.9085  157.7306   -3.7258 H        14        0    0.0000
     91 C         169.9871  155.8200   -2.6708 C.3      15        0    0.0000
     92 C         170.1897  156.4595   -1.2927 C.3      15        0    0.0000
     93 H         168.9321  155.5537   -2.8105 H        15        0    0.0000
     94 H         170.5594  154.8866   -2.7402 H        15        0    0.0000
     95 H         171.2542  156.6669   -1.1271 H        15        0    0.0000
     96 H         169.6697  157.4243   -1.2457 H        15        0    0.0000
     97 C         169.6662  155.5461   -0.1312 C.3      16        0    0.0000
     98 C         169.6602  156.2704    1.2195 C.3      16        0    0.0000
     99 H         168.6537  155.2042   -0.3792 H        16        0    0.0000
    100 H         170.2964  154.6499   -0.0746 H        16        0    0.0000
    101 H         168.6306  156.5088    1.5140 H        16        0    0.0000
    102 H         170.0672  155.6151    1.9996 H        16        0    0.0000
    103 C         170.4961  157.5962    1.1864 C.3      17        0    0.0000
    104 C         170.1137  158.5524    2.3216 C.3      17        0    0.0000
    105 H         171.5619  157.3440    1.2500 H        17        0    0.0000
    106 H         170.3454  158.0851    0.2160 H        17        0    0.0000
    107 H         169.0557  158.4237    2.5815 H        17        0    0.0000
    108 H         170.6909  158.3151    3.2238 H        17        0    0.0000
    109 C         170.3620  160.0533    1.9431 C.3      18        0    0.0000
    110 C         170.6904  160.9144    3.1677 C.3      18        0    0.0000
    111 H         171.1827  160.1037    1.2168 H        18        0    0.0000
    112 H         169.4697  160.4428    1.4377 H        18        0    0.0000
    113 H         169.7644  161.2601    3.6438 H        18        0    0.0000
    114 H         171.2249  160.3161    3.9160 H        18        0    0.0000
    115 C         171.5654  162.1619    2.7994 C.3      19        0    0.0000
    116 C         172.0674  162.9064    4.0415 C.3      19        0    0.0000
    117 H         172.4155  161.8302    2.1905 H        19        0    0.0000
    118 H         170.9717  162.8370    2.1706 H        19        0    0.0000
    119 H         172.7137  163.7414    3.7440 H        19        0    0.0000
    120 H         171.2209  163.3419    4.5868 H        19        0    0.0000
    121 C         172.8663  161.9704    5.0127 C.3      20        0    0.0000
    122 C         173.2720  162.6857    6.3060 C.3      20        0    0.0000
    123 H         172.2496  161.0934    5.2454 H        20        0    0.0000
    124 H         173.7580  161.5994    4.4924 H        20        0    0.0000
    125 H         172.4143  162.7461    6.9875 H        20        0    0.0000
    126 H         174.0479  162.1107    6.8264 H        20        0    0.0000
    127 C         173.8091  164.1343    6.0404 C.3      21        0    0.0000
    128 C         173.2353  165.1567    7.0276 C.3      21        0    0.0000
    129 H         174.9042  164.1227    6.1049 H        21        0    0.0000
    130 H         173.5572  164.4218    5.0121 H        21        0    0.0000
    131 H         172.8646  164.6460    7.9250 H        21        0    0.0000
    132 H         174.0242  165.8433    7.3590 H        21        0    0.0000
    133 C         172.0662  165.9939    6.4033 C.3      22        0    0.0000
    134 C         172.1907  167.4890    6.7166 C.3      22        0    0.0000
    135 H         172.0589  165.8363    5.3177 H        22        0    0.0000
    136 H         171.1124  165.6079    6.7840 H        22        0    0.0000
    137 H         171.5663  167.7454    7.5815 H        22        0    0.0000
    138 H         173.2247  167.7309    6.9918 H        22        0    0.0000
    139 C         171.7672  168.3874    5.5038 C.3      23        0    0.0000
    140 C         172.8762  169.3593    5.0858 C.3      23        0    0.0000
    141 H         171.4977  167.7392    4.6607 H        23        0    0.0000
    142 H         170.8618  168.9441    5.7752 H        23        0    0.0000
    143 H         172.4436  170.3316    4.8194 H        23        0    0.0000
    144 H         173.5572  169.5374    5.9273 H        23        0    0.0000
    145 C         173.7066  168.8251    3.8682 C.3      24        0    0.0000
    146 C         173.7692  169.8372    2.7190 C.3      24        0    0.0000
    147 H         174.7200  168.5818    4.2108 H        24        0    0.0000
    148 H         173.2583  167.8866    3.5190 H        24        0    0.0000
    149 H         173.5451  170.8443    3.0921 H        24        0    0.0000
    150 H         174.7843  169.8734    2.3045 H        24        0    0.0000
    151 C         172.7648  169.4903    1.5664 C.3      25        0    0.0000
    152 C         173.3735  169.7162    0.1780 C.3      25        0    0.0000
    153 H         172.4507  168.4447    1.6739 H        25        0    0.0000
    154 H         171.8634  170.1040    1.6863 H        25        0    0.0000
    155 H         174.0387  168.8832   -0.0811 H        25        0    0.0000
    156 H         172.5818  169.7351   -0.5812 H        25        0    0.0000
    157 C         174.1847  171.0551    0.0957 C.3      26        0    0.0000
    158 C         175.1587  171.0723   -1.0876 C.3      26        0    0.0000
    159 H         173.4794  171.8914    0.0145 H        26        0    0.0000
    160 H         174.7326  171.1950    1.0358 H        26        0    0.0000
    161 H         175.3639  170.0474   -1.4209 H        26        0    0.0000
    162 H         174.7067  171.5958   -1.9392 H        26        0    0.0000
    163 C         176.5167  171.7685   -0.7293 C.3      27        0    0.0000
    164 C         177.5292  171.6923   -1.8773 C.3      27        0    0.0000
    165 H         176.3194  172.8163   -0.4707 H        27        0    0.0000
    166 H         176.9306  171.2948    0.1695 H        27        0    0.0000
    167 H         177.8215  170.6495   -2.0525 H        27        0    0.0000
    168 H         177.0713  172.0516   -2.8073 H        27        0    0.0000
    169 C         178.8183  172.5367   -1.5897 C.3      28        0    0.0000
    170 C         179.5898  172.8736   -2.8704 C.3      28        0    0.0000
    171 H         178.5283  173.4592   -1.0716 H        28        0    0.0000
    172 H         179.4612  171.9766   -0.8995 H        28        0    0.0000
    173 H         180.4948  173.4432   -2.6256 H        28        0    0.0000
    174 H         179.9216  171.9513   -3.3632 H        28        0    0.0000
    175 C         178.7278  173.7050   -3.8820 C.3      29        0    0.0000
    176 C         179.4367  173.8988   -5.2269 C.3      29        0    0.0000
    177 H         177.7686  173.1942   -4.0325 H        29        0    0.0000
    178 H         178.4987  174.6797   -3.4337 H        29        0    0.0000
    179 H         178.9980  174.7486   -5.7644 H        29        0    0.0000
    180 H         180.4940  174.1414   -5.0634 H        29        0    0.0000
    181 C         179.3455  172.6246   -6.1356 C.3      30        0    0.0000
    182 C         179.8431  172.8907   -7.5606 C.3      30        0    0.0000
    183 H         179.9327  171.8199   -5.6762 H        30        0    0.0000
    184 H         178.3039  172.2808   -6.1590 H        30        0    0.0000
    185 H         180.4860  173.7795   -7.5748 H        30        0    0.0000
    186 H         180.4586  172.0511   -7.9070 H        30        0    0.0000
    187 C         178.6641  173.1037   -8.5716 C.3      31        0    0.0000
    188 C         179.1556  173.2386  -10.0171 C.3      31        0    0.0000
    189 H         177.9694  172.2587   -8.4878 H        31        0    0.0000
    190 H         178.1052  174.0012   -8.2790 H        31        0    0.0000
    191 H         178.3002  173.3041  -10.7007 H        31        0    0.0000
    192 H         179.7254  174.1685  -10.1354 H        31        0    0.0000
    193 C         180.0591  172.0336  -10.4522 C.3      32        0    0.0000
    194 C         180.4941  172.1336  -11.9184 C.3      32        0    0.0000
    195 H         180.9405  171.9989   -9.7999 H        32        0    0.0000
    196 H         179.5074  171.1000  -10.2863 H        32        0    0.0000
    197 H         181.2027  172.9614  -12.0450 H        32        0    0.0000
    198 H         181.0212  171.2191  -12.2176 H        32        0    0.0000
    199 C         179.2797  172.3559  -12.8845 C.3      33        0    0.0000
    200 C         179.7262  172.7276  -14.3028 C.3      33        0    0.0000
    201 H         178.6747  171.4410  -12.9083 H        33        0    0.0000
    202 H         178.6399  173.1460  -12.4724 H        33        0    0.0000
    203 H         180.1894  173.7221  -14.3028 H        33        0    0.0000
    204 H         180.4914  172.0238  -14.6529 H        33        0    0.0000
    205 C         178.5341  172.7254  -15.3208 C.3      34        0    0.0000
    206 C         178.9944  173.0083  -16.7550 C.3      34        0    0.0000
    207 H         178.0298  171.7523  -15.2726 H        34        0    0.0000
    208 H         177.7993  173.4770  -15.0064 H        34        0    0.0000
    209 H         178.1528  172.8949  -17.4495 H        34        0    0.0000
    210 H         179.3371  174.0468  -16.8422 H        34        0    0.0000
    211 C         180.1537  172.0542  -17.2059 C.3      35        0    0.0000
    212 C         180.5948  172.3183  -18.6498 C.3      35        0    0.0000
    213 H         181.0031  172.1829  -16.5236 H        35        0    0.0000
    214 H         179.8183  171.0152  -17.0991 H        35        0    0.0000
    215 H         181.1285  173.2747  -18.7112 H        35        0    0.0000
    216 H         181.2992  171.5429  -18.9757 H        35        0    0.0000
    217 C         179.3835  172.3508  -19.6445 C.3      36        0    0.0000
    218 C         179.7784  172.8917  -21.0231 C.3      36        0    0.0000
    219 H         178.9776  171.3362  -19.7407 H        36        0    0.0000
    220 H         178.5872  172.9690  -19.2118 H        36        0    0.0000
    221 H         179.5312  173.9583  -21.0936 H        36        0    0.0000
    222 H         180.8635  172.8100  -21.1626 H        36        0    0.0000
    223 C         179.0602  172.1284  -22.1888 C.3      37        0    0.0000
    224 C         179.4894  172.6390  -23.5687 C.3      37        0    0.0000
    225 H         179.2804  171.0575  -22.0988 H        37        0    0.0000
    226 H         177.9753  172.2382  -22.0678 H        37        0    0.0000
    227 H         179.1180  173.6595  -23.7244 H        37        0    0.0000
    228 H         180.5837  172.6896  -23.6274 H        37        0    0.0000
    229 C         178.9626  171.7271  -24.7299 C.3      38        0    0.0000
    230 C         179.3703  172.2517  -26.1110 C.3      38        0    0.0000
    231 H         179.3491  170.7108  -24.5844 H        38        0    0.0000
    232 H         177.8697  171.6615  -24.6600 H        38        0    0.0000
    233 H         180.4477  172.1117  -26.2636 H        38        0    0.0000
    234 H         178.8636  171.6771  -26.8963 H        38        0    0.0000
    235 C         179.0271  173.7702  -26.2948 C.3      39        0    0.0000
    236 C         179.4321  174.2941  -27.6770 C.3      39        0    0.0000
    237 H         177.9501  173.9105  -26.1401 H        39        0    0.0000
    238 H         179.5355  174.3451  -25.5108 H        39        0    0.0000
    239 H         179.0318  175.3042  -27.8286 H        39        0    0.0000
    240 H         180.5242  174.3748  -27.7436 H        39        0    0.0000
    241 C         178.9223  173.3694  -28.8357 C.3      40        0    0.0000
    242 C         179.6596  173.6298  -30.1538 C.3      40        0    0.0000
    243 H         179.0491  172.3223  -28.5342 H        40        0    0.0000
    244 H         177.8453  173.5307  -28.9689 H        40        0    0.0000
    245 H         179.4848  174.6608  -30.4853 H        40        0    0.0000
    246 H         180.7417  173.5254  -30.0065 H        40        0    0.0000
    247 C         179.2077  172.6499  -31.2910 C.3      41        0    0.0000
    248 C         179.8127  173.0188  -32.6500 C.3      41        0    0.0000
    249 H         179.4986  171.6290  -31.0143 H        41        0    0.0000
    250 H         178.1124  172.6599  -31.3517 H        41        0    0.0000
    251 H         179.9882  174.1004  -32.7025 H        41        0    0.0000
    252 H         180.7899  172.5349  -32.7705 H        41        0    0.0000
    253 C         178.8897  172.5980  -33.8452 C.3      42        0    0.0000
    254 C         179.5049  172.9468  -35.2049 C.3      42        0    0.0000
    255 H         178.7009  171.5191  -33.7833 H        42        0    0.0000
    256 H         177.9179  173.0948  -33.7333 H        42        0    0.0000
    257 H         179.5838  174.0356  -35.3139 H        42        0    0.0000
    258 H         180.5252  172.5490  -35.2694 H        42        0    0.0000
    259 C         178.6646  172.3790  -36.4003 C.3      43        0    0.0000
    260 C         179.2741  172.7366  -37.7603 C.3      43        0    0.0000
    261 H         178.5921  171.2893  -36.2955 H        43        0    0.0000
    262 H         177.6422  172.7708  -36.3316 H        43        0    0.0000
    263 H         180.1925  172.1594  -37.9245 H        43        0    0.0000
    264 H         178.5819  172.4633  -38.5664 H        43        0    0.0000
    265 C         179.6092  174.2635  -37.8781 C.3      44        0    0.0000
    266 C         180.3513  174.5968  -39.1771 C.3      44        0    0.0000
    267 H         178.6750  174.8359  -37.8211 H        44        0    0.0000
    268 H         180.2141  174.5606  -37.0125 H        44        0    0.0000
    269 H         179.8818  175.4582  -39.6681 H        44        0    0.0000
    270 H         181.3861  174.8859  -38.9555 H        44        0    0.0000
    271 C         180.3669  173.3909  -40.1786 C.3      45        0    0.0000
    272 C         180.5382  173.8453  -41.6322 C.3      45        0    0.0000
    273 H         181.1801  172.7097  -39.8991 H        45        0    0.0000
    274 H         179.4320  172.8275  -40.0682 H        45        0    0.0000
    275 H         180.9754  174.8510  -41.6630 H        45        0    0.0000
    276 H         181.2385  173.1812  -42.1539 H        45        0    0.0000
    277 C         179.1793  173.8610  -42.4138 C.3      46        0    0.0000
    278 C         179.3260  173.3315  -43.8446 C.3      46        0    0.0000
    279 H         178.4474  173.2578  -41.8626 H        46        0    0.0000
    280 H         178.7928  174.8876  -42.4305 H        46        0    0.0000
    281 H         180.0580  173.9348  -44.3958 H        46        0    0.0000
    282 H         179.7125  172.3049  -43.8279 H        46        0    0.0000
    283 H         178.3812  173.3424  -44.3880 H        46        0    0.0000
    284 H         169.2798  157.1087  -40.4349 H         0        0    0.0000
@<TRIPOS>BOND
     1     1     2      1
     2     1     3      1
     3     1     4      1
     4     1   284      H
     5     2     5      1
     6     2     6      1
     7     2     7      1
     8     7     8      1
     9     7     9      1
    10     7    10      1
    11     8    11      1
    12     8    12      1
    13     8    13      1
    14    13    14      1
    15    13    15      1
    16    13    16      1
    17    14    17      1
    18    14    18      1
    19    14    19      1
    20    19    20      1
    21    19    21      1
    22    19    22      1
    23    20    23      1
    24    20    24      1
    25    20    25      1
    26    25    26      1
    27    25    27      1
    28    25    28      1
    29    26    29      1
    30    26    30      1
    31    26    31      1
    32    31    32      1
    33    31    33      1
    34    31    34      1
    35    32    35      1
    36    32    36      1
    37    32    37      1
    38    37    38      1
    39    37    39      1
    40    37    40      1
    41    38    41      1
    42    38    42      1
    43    38    43      1
    44    43    44      1
    45    43    45      1
    46    43    46      1
    47    44    47      1
    48    44    48      1
    49    44    49      1
    50    49    50      1
    51    49    51      1
    52    49    52      1
    53    50    53      1
    54    50    54      1
    55    50    55      1
    56    55    56      1
    57    55    57      1
    58    55    58      1
    59    56    59      1
    60    56    60      1
    61    56    61      1
    62    61    62      1
    63    61    63      1
    64    61    64      1
    65    62    65      1
    66    62    66      1
    67    62    67      1
    68    67    68      1
    69    67    69      1
    70    67    70      1
    71    68    71      1
    72    68    72      1
    73    68    73      1
    74    73    74      1
    75    73    75      1
    76    73    76      1
    77    74    77      1
    78    74    78      1
    79    74    79      1
    80    79    80      1
    81    79    81      1
    82    79    82      1
    83    80    83      1
    84    80    84      1
    85    80    85      1
    86    85    86      1
    87    85    87      1
    88    85    88      1
    89    86    89      1
    90    86    90      1
    91    86    91      1
    92    91    92      1
    93    91    93      1
    94    91    94      1
    95    92    95      1
    96    92    96      1
    97    92    97      1
    98    97    98      1
    99    97    99      1
   100    97   100      1
   101    98   101      1
   102    98   102      1
   103    98   103      1
   104   103   104      1
   105   103   105      1
   106   103   106      1
   107   104   107      1
   108   104   108      1
   109   104   109      1
   110   109   110      1
   111   109   111      1
   112   109   112      1
   113   110   113      1
   114   110   114      1
   115   110   115      1
   116   115   116      1
   117   115   117      1
   118   115   118      1
   119   116   119      1
   120   116   120      1
   121   116   121      1
   122   121   122      1
   123   121   123      1
   124   121   124      1
   125   122   125      1
   126   122   126      1
   127   122   127      1
   128   127   128      1
   129   127   129      1
   130   127   130      1
   131   128   131      1
   132   128   132      1
   133   128   133      1
   134   133   134      1
   135   133   135      1
   136   133   136      1
   137   134   137      1
   138   134   138      1
   139   134   139      1
   140   139   140      1
   141   139   141      1
   142   139   142      1
   143   140   143      1
   144   140   144      1
   145   140   145      1
   146   145   146      1
   147   145   147      1
   148   145   148      1
   149   146   149      1
   150   146   150      1
   151   146   151      1
   152   151   152      1
   153   151   153      1
   154   151   154      1
   155   152   155      1
   156   152   156      1
   157   152   157      1
   158   157   158      1
   159   157   159      1
   160   157   160      1
   161   158   161      1
   162   158   162      1
   163   158   163      1
   164   163   164      1
   165   163   165      1
   166   163   166      1
   167   164   167      1
   168   164   168      1
   169   164   169      1
   170   169   170      1
   171   169   171      1
   172   169   172      1
   173   170   173      1
   174   170   174      1
   175   170   175      1
   176   175   176      1
   177   175   177      1
   178   175   178      1
   179   176   179      1
   180   176   180      1
   181   176   181      1
   182   181   182      1
   183   181   183      1
   184   181   184      1
   185   182   185      1
   186   182   186      1
   187   182   187      1
   188   187   188      1
   189   187   189      1
   190   187   190      1
   191   188   191      1
   192   188   192      1
   193   188   193      1
   194   193   194      1
   195   193   195      1
   196   193   196      1
   197   194   197      1
   198   194   198      1
   199   194   199      1
   200   199   200      1
   201   199   201      1
   202   199   202      1
   203   200   203      1
   204   200   204      1
   205   200   205      1
   206   205   206      1
   207   205   207      1
   208   205   208      1
   209   206   209      1
   210   206   210      1
   211   206   211      1
   212   211   212      1
   213   211   213      1
   214   211   214      1
   215   212   215      1
   216   212   216      1
   217   212   217      1
   218   217   218      1
   219   217   219      1
   220   217   220      1
   221   218   221      1
   222   218   222      1
   223   218   223      1
   224   223   224      1
   225   223   225      1
   226   223   226      1
   227   224   227      1
   228   224   228      1
   229   224   229      1
   230   229   230      1
   231   229   231      1
   232   229   232      1
   233   230   233      1
   234   230   234      1
   235   230   235      1
   236   235   236      1
   237   235   237      1
   238   235   238      1
   239   236   239      1
   240   236   240      1
   241   236   241      1
   242   241   242      1
   243   241   243      1
   244   241   244      1
   245   242   245      1
   246   242   246      1
   247   242   247      1
   248   247   248      1
   249   247   249      1
   250   247   250      1
   251   248   251      1
   252   248   252      1
   253   248   253      1
   254   253   254      1
   255   253   255      1
   256   253   256      1
   257   254   257      1
   258   254   258      1
   259   254   259      1
   260   259   260      1
   261   259   261      1
   262   259   262      1
   263   260   263      1
   264   260   264      1
   265   260   265      1
   266   265   266      1
   267   265   267      1
   268   265   268      1
   269   266   269      1
   270   266   270      1
   271   266   271      1
   272   271   272      1
   273   271   273      1
   274   271   274      1
   275   272   275      1
   276   272   276      1
   277   272   277      1
   278   277   278      1
   279   277   279      1
   280   277   280      1
   281   278   281      1
   282   278   282      1
   283   278   283      H
