###
### Created by PolyChef-cpp17 on Thu Feb 27 19:40:30 2025
###

@<TRIPOS>MOLECULE
NO_INFO
152 151 1 0 0
SMALL
USER_CHARGES


@<TRIPOS>ATOM
      1 C         159.2798  174.4287  120.6551 C.3       0        0    0.0000
      2 C         158.4513  173.2775  120.0742 C.3       0        0    0.0000
      3 H         158.8875  175.3902  120.3015 H         0        0    0.0000
      4 H         160.3162  174.3620  120.3014 H         0        0    0.0000
      5 H         158.4078  172.4470  120.7897 H         0        0    0.0000
      6 H         157.4174  173.6046  119.9080 H         0        0    0.0000
      7 C         159.0375  172.7478  118.7202 C.3       1        0    0.0000
      8 C         159.6342  173.8720  117.8663 C.3       1        0    0.0000
      9 H         159.8037  171.9935  118.9377 H         1        0    0.0000
     10 H         158.2406  172.2367  118.1658 H         1        0    0.0000
     11 H         158.9416  174.7219  117.8260 H         1        0    0.0000
     12 H         160.5599  174.2415  118.3245 H         1        0    0.0000
     13 C         159.9462  173.4047  116.4028 C.3       2        0    0.0000
     14 C         159.8815  174.5600  115.3978 C.3       2        0    0.0000
     15 H         160.9420  172.9446  116.3833 H         2        0    0.0000
     16 H         159.2316  172.6212  116.1218 H         2        0    0.0000
     17 H         158.9586  175.1349  115.5446 H         2        0    0.0000
     18 H         160.7147  175.2532  115.5673 H         2        0    0.0000
     19 C         159.9344  174.0597  113.9132 C.3       3        0    0.0000
     20 C         159.8192  175.2108  112.9078 C.3       3        0    0.0000
     21 H         160.8744  173.5161  113.7565 H         3        0    0.0000
     22 H         159.1231  173.3386  113.7539 H         3        0    0.0000
     23 H         158.8831  175.7596  113.0699 H         3        0    0.0000
     24 H         160.6353  175.9277  113.0617 H         3        0    0.0000
     25 C         159.8603  174.7094  111.4232 C.3       4        0    0.0000
     26 C         159.8150  175.8656  110.4181 C.3       4        0    0.0000
     27 H         160.7722  174.1176  111.2749 H         4        0    0.0000
     28 H         159.0142  174.0316  111.2553 H         4        0    0.0000
     29 H         158.8963  176.4489  110.5569 H         4        0    0.0000
     30 H         160.6532  176.5509  110.5951 H         4        0    0.0000
     31 C         159.8763  175.3652  108.9337 C.3       5        0    0.0000
     32 C         158.7861  175.9980  108.0619 C.3       5        0    0.0000
     33 H         160.8672  175.5959  108.5234 H         5        0    0.0000
     34 H         159.7782  174.2725  108.9245 H         5        0    0.0000
     35 H         157.8311  176.0076  108.6017 H         5        0    0.0000
     36 H         159.0368  177.0441  107.8466 H         5        0    0.0000
     37 C         158.5925  175.2354  106.7060 C.3       6        0    0.0000
     38 C         158.8815  176.1257  105.4924 C.3       6        0    0.0000
     39 H         159.2528  174.3593  106.6956 H         6        0    0.0000
     40 H         157.5644  174.8556  106.6576 H         6        0    0.0000
     41 H         157.9655  176.6403  105.1767 H         6        0    0.0000
     42 H         159.6043  176.9059  105.7618 H         6        0    0.0000
     43 C         159.4470  175.3105  104.2787 C.3       7        0    0.0000
     44 C         158.8047  175.7255  102.9505 C.3       7        0    0.0000
     45 H         160.5336  175.4538  104.2320 H         7        0    0.0000
     46 H         159.2776  174.2420  104.4608 H         7        0    0.0000
     47 H         157.7141  175.7742  103.0590 H         7        0    0.0000
     48 H         159.1385  176.7321  102.6695 H         7        0    0.0000
     49 C         159.1529  174.7345  101.7868 C.3       8        0    0.0000
     50 C         158.9653  175.3716  100.4056 C.3       8        0    0.0000
     51 H         160.1898  174.3974  101.9079 H         8        0    0.0000
     52 H         158.5192  173.8437  101.8795 H         8        0    0.0000
     53 H         157.9097  175.6257  100.2487 H         8        0    0.0000
     54 H         159.5279  176.3115  100.3453 H         8        0    0.0000
     55 C         159.4351  174.4263   99.2466 C.3       9        0    0.0000
     56 C         159.1603  175.0239   97.8622 C.3       9        0    0.0000
     57 H         160.5076  174.2282   99.3646 H         9        0    0.0000
     58 H         158.9234  173.4612   99.3480 H         9        0    0.0000
     59 H         158.0905  175.2407   97.7517 H         9        0    0.0000
     60 H         159.6883  175.9793   97.7534 H         9        0    0.0000
     61 C         159.6041  174.0663   96.7030 C.3      10        0    0.0000
     62 C         159.3260  174.6623   95.3187 C.3      10        0    0.0000
     63 H         160.6745  173.8517   96.8120 H        10        0    0.0000
     64 H         159.0782  173.1100   96.8135 H        10        0    0.0000
     65 H         158.2559  174.8787   95.2104 H        10        0    0.0000
     66 H         159.8535  175.6178   95.2076 H        10        0    0.0000
     67 C         159.7674  173.7037   94.1595 C.3      11        0    0.0000
     68 C         159.4908  174.3004   92.7752 C.3      11        0    0.0000
     69 H         160.8372  173.4863   94.2685 H        11        0    0.0000
     70 H         159.2390  172.7486   94.2700 H        11        0    0.0000
     71 H         158.4213  174.5194   92.6668 H        11        0    0.0000
     72 H         160.0206  175.2545   92.6641 H        11        0    0.0000
     73 C         159.9299  173.3407   91.6160 C.3      12        0    0.0000
     74 C         159.6623  173.9415   90.2317 C.3      12        0    0.0000
     75 H         160.9978  173.1158   91.7285 H        12        0    0.0000
     76 H         159.3947  172.3890   91.7230 H        12        0    0.0000
     77 H         158.5950  174.1694   90.1205 H        12        0    0.0000
     78 H         160.2003  174.8914   90.1235 H        12        0    0.0000
     79 C         160.0970  172.9798   89.0725 C.3      13        0    0.0000
     80 C         159.8266  173.5793   87.6882 C.3      13        0    0.0000
     81 H         161.1649  172.7537   89.1824 H        13        0    0.0000
     82 H         159.5608  172.0290   89.1820 H        13        0    0.0000
     83 H         158.7578  173.8002   87.5762 H        13        0    0.0000
     84 H         160.3583  174.5329   87.5808 H        13        0    0.0000
     85 C         160.2686  172.6209   86.5290 C.3      14        0    0.0000
     86 C         159.9921  173.2177   85.1447 C.3      14        0    0.0000
     87 H         161.3384  172.4038   86.6383 H        14        0    0.0000
     88 H         159.7404  171.6657   86.6392 H        14        0    0.0000
     89 H         158.9216  173.4302   85.0336 H        14        0    0.0000
     90 H         160.5163  174.1753   85.0363 H        14        0    0.0000
     91 C         160.4406  172.2623   83.9855 C.3      15        0    0.0000
     92 C         160.1542  172.8544   82.6012 C.3      15        0    0.0000
     93 H         161.5128  172.0562   84.0920 H        15        0    0.0000
     94 H         159.9224  171.3020   84.0984 H        15        0    0.0000
     95 H         159.1422  173.2771   82.5748 H        15        0    0.0000
     96 H         160.8460  173.6805   82.3949 H        15        0    0.0000
     97 C         160.2862  171.7878   81.4599 C.3      16        0    0.0000
     98 C         160.0844  172.3979   80.0685 C.3      16        0    0.0000
     99 H         161.2765  171.3203   81.5257 H        16        0    0.0000
    100 H         159.5504  170.9926   81.6323 H        16        0    0.0000
    101 H         160.9829  172.9500   79.7659 H        16        0    0.0000
    102 H         159.9384  171.6029   79.3268 H        16        0    0.0000
    103 C         158.8542  173.3682   80.0180 C.3      17        0    0.0000
    104 C         157.9897  173.1458   78.7721 C.3      17        0    0.0000
    105 H         158.2526  173.2239   80.9240 H        17        0    0.0000
    106 H         159.2186  174.4027   80.0433 H        17        0    0.0000
    107 H         158.5354  173.4619   77.8744 H        17        0    0.0000
    108 H         157.7741  172.0771   78.6497 H        17        0    0.0000
    109 C         156.6342  173.9300   78.8418 C.3      18        0    0.0000
    110 C         156.0877  174.2702   77.4509 C.3      18        0    0.0000
    111 H         155.9044  173.3262   79.3953 H        18        0    0.0000
    112 H         156.7867  174.8490   79.4212 H        18        0    0.0000
    113 H         156.8950  174.2290   76.7092 H        18        0    0.0000
    114 H         155.3423  173.5249   77.1469 H        18        0    0.0000
    115 C         155.4293  175.6921   77.4026 C.3      19        0    0.0000
    116 C         155.2541  176.2027   75.9682 C.3      19        0    0.0000
    117 H         154.4565  175.6486   77.9079 H        19        0    0.0000
    118 H         156.0517  176.3896   77.9768 H        19        0    0.0000
    119 H         155.9788  175.7153   75.3043 H        19        0    0.0000
    120 H         154.2571  175.9388   75.5941 H        19        0    0.0000
    121 C         155.4382  177.7560   75.8639 C.3      20        0    0.0000
    122 C         155.0791  178.2914   74.4734 C.3      20        0    0.0000
    123 H         154.8130  178.2381   76.6256 H        20        0    0.0000
    124 H         156.4786  178.0058   76.1060 H        20        0    0.0000
    125 H         155.7571  179.1089   74.1985 H        20        0    0.0000
    126 H         155.2135  177.5043   73.7210 H        20        0    0.0000
    127 C         153.6027  178.8132   74.4007 C.3      21        0    0.0000
    128 C         153.3191  179.5747   73.1012 C.3      21        0    0.0000
    129 H         152.9208  177.9587   74.4924 H        21        0    0.0000
    130 H         153.4138  179.4613   75.2654 H        21        0    0.0000
    131 H         154.1357  180.2764   72.8905 H        21        0    0.0000
    132 H         153.2786  178.8756   72.2567 H        21        0    0.0000
    133 C         151.9708  180.3722   73.1621 C.3      22        0    0.0000
    134 C         151.9230  181.5113   72.1379 C.3      22        0    0.0000
    135 H         151.1404  179.6763   72.9899 H        22        0    0.0000
    136 H         151.8419  180.7719   74.1756 H        22        0    0.0000
    137 H         152.9206  181.9519   72.0184 H        22        0    0.0000
    138 H         151.6311  181.1214   71.1549 H        22        0    0.0000
    139 C         150.9181  182.6409   72.5521 C.3      23        0    0.0000
    140 C         149.7769  182.8024   71.5418 C.3      23        0    0.0000
    141 H         150.5120  182.4067   73.5440 H        23        0    0.0000
    142 H         151.4685  183.5847   72.6520 H        23        0    0.0000
    143 H         149.0282  183.5045   71.9291 H        23        0    0.0000
    144 H         150.1593  183.2331   70.6081 H        23        0    0.0000
    145 C         149.0724  181.4398   71.2185 C.3      24        0    0.0000
    146 C         147.5689  181.4790   71.5133 C.3      24        0    0.0000
    147 H         149.2425  181.1956   70.1626 H        24        0    0.0000
    148 H         149.5504  180.6464   71.8063 H        24        0    0.0000
    149 H         147.3988  181.7233   72.5692 H        24        0    0.0000
    150 H         147.0909  182.2725   70.9255 H        24        0    0.0000
    151 H         147.0790  180.5316   71.2885 H        24        0    0.0000
    152 H         159.2798  174.4287  121.7450 H         0        0    0.0000
@<TRIPOS>BOND
     1     1     2      1
     2     1     3      1
     3     1     4      1
     4     1   152      H
     5     2     5      1
     6     2     6      1
     7     2     7      1
     8     7     8      1
     9     7     9      1
    10     7    10      1
    11     8    11      1
    12     8    12      1
    13     8    13      1
    14    13    14      1
    15    13    15      1
    16    13    16      1
    17    14    17      1
    18    14    18      1
    19    14    19      1
    20    19    20      1
    21    19    21      1
    22    19    22      1
    23    20    23      1
    24    20    24      1
    25    20    25      1
    26    25    26      1
    27    25    27      1
    28    25    28      1
    29    26    29      1
    30    26    30      1
    31    26    31      1
    32    31    32      1
    33    31    33      1
    34    31    34      1
    35    32    35      1
    36    32    36      1
    37    32    37      1
    38    37    38      1
    39    37    39      1
    40    37    40      1
    41    38    41      1
    42    38    42      1
    43    38    43      1
    44    43    44      1
    45    43    45      1
    46    43    46      1
    47    44    47      1
    48    44    48      1
    49    44    49      1
    50    49    50      1
    51    49    51      1
    52    49    52      1
    53    50    53      1
    54    50    54      1
    55    50    55      1
    56    55    56      1
    57    55    57      1
    58    55    58      1
    59    56    59      1
    60    56    60      1
    61    56    61      1
    62    61    62      1
    63    61    63      1
    64    61    64      1
    65    62    65      1
    66    62    66      1
    67    62    67      1
    68    67    68      1
    69    67    69      1
    70    67    70      1
    71    68    71      1
    72    68    72      1
    73    68    73      1
    74    73    74      1
    75    73    75      1
    76    73    76      1
    77    74    77      1
    78    74    78      1
    79    74    79      1
    80    79    80      1
    81    79    81      1
    82    79    82      1
    83    80    83      1
    84    80    84      1
    85    80    85      1
    86    85    86      1
    87    85    87      1
    88    85    88      1
    89    86    89      1
    90    86    90      1
    91    86    91      1
    92    91    92      1
    93    91    93      1
    94    91    94      1
    95    92    95      1
    96    92    96      1
    97    92    97      1
    98    97    98      1
    99    97    99      1
   100    97   100      1
   101    98   101      1
   102    98   102      1
   103    98   103      1
   104   103   104      1
   105   103   105      1
   106   103   106      1
   107   104   107      1
   108   104   108      1
   109   104   109      1
   110   109   110      1
   111   109   111      1
   112   109   112      1
   113   110   113      1
   114   110   114      1
   115   110   115      1
   116   115   116      1
   117   115   117      1
   118   115   118      1
   119   116   119      1
   120   116   120      1
   121   116   121      1
   122   121   122      1
   123   121   123      1
   124   121   124      1
   125   122   125      1
   126   122   126      1
   127   122   127      1
   128   127   128      1
   129   127   129      1
   130   127   130      1
   131   128   131      1
   132   128   132      1
   133   128   133      1
   134   133   134      1
   135   133   135      1
   136   133   136      1
   137   134   137      1
   138   134   138      1
   139   134   139      1
   140   139   140      1
   141   139   141      1
   142   139   142      1
   143   140   143      1
   144   140   144      1
   145   140   145      1
   146   145   146      1
   147   145   147      1
   148   145   148      1
   149   146   149      1
   150   146   150      1
   151   146   151      H
