###
### Created by PolyChef-cpp17 on Thu Feb 27 19:40:30 2025
###

@<TRIPOS>MOLECULE
NO_INFO
140 139 1 0 0
SMALL
USER_CHARGES


@<TRIPOS>ATOM
      1 C         149.2798  191.7487  -39.3449 C.3       0        0    0.0000
      2 C         147.8706  191.5882  -38.7641 C.3       0        0    0.0000
      3 H         149.9271  190.9366  -38.9914 H         0        0    0.0000
      4 H         149.7280  192.6855  -38.9913 H         0        0    0.0000
      5 H         147.3720  192.5640  -38.7115 H         0        0    0.0000
      6 H         147.2612  190.9583  -39.4240 H         0        0    0.0000
      7 C         147.8874  190.9515  -37.3317 C.3       1        0    0.0000
      8 C         149.1654  191.2948  -36.5584 C.3       1        0    0.0000
      9 H         147.0073  191.3023  -36.7785 H         1        0    0.0000
     10 H         147.7863  189.8633  -37.4272 H         1        0    0.0000
     11 H         150.0456  191.1156  -37.1882 H         1        0    0.0000
     12 H         149.1742  192.3611  -36.3007 H         1        0    0.0000
     13 C         149.3067  190.4555  -35.2419 C.3       2        0    0.0000
     14 C         150.2070  191.1423  -34.2091 C.3       2        0    0.0000
     15 H         148.3080  190.2897  -34.8193 H         2        0    0.0000
     16 H         149.7100  189.4670  -35.4943 H         2        0    0.0000
     17 H         151.2609  191.0199  -34.4880 H         2        0    0.0000
     18 H         150.0082  192.2212  -34.1950 H         2        0    0.0000
     19 C         149.9970  190.5710  -32.7645 C.3       3        0    0.0000
     20 C         150.6217  191.4668  -31.6891 C.3       3        0    0.0000
     21 H         148.9212  190.4583  -32.5817 H         3        0    0.0000
     22 H         150.4320  189.5651  -32.7153 H         3        0    0.0000
     23 H         151.7107  191.5045  -31.8169 H         3        0    0.0000
     24 H         150.2560  192.4954  -31.7974 H         3        0    0.0000
     25 C         150.3003  190.9663  -30.2387 C.3       4        0    0.0000
     26 C         150.8971  191.8806  -29.1631 C.3       4        0    0.0000
     27 H         149.2115  190.9053  -30.1188 H         4        0    0.0000
     28 H         150.6876  189.9464  -30.1227 H         4        0    0.0000
     29 H         151.9865  191.9368  -29.2794 H         4        0    0.0000
     30 H         150.5144  192.9017  -29.2828 H         4        0    0.0000
     31 C         150.5687  191.3846  -27.7127 C.3       5        0    0.0000
     32 C         151.1723  192.2945  -26.6372 C.3       5        0    0.0000
     33 H         149.4792  191.3339  -27.5945 H         5        0    0.0000
     34 H         150.9463  190.3613  -27.5950 H         5        0    0.0000
     35 H         152.2617  192.3461  -26.7560 H         5        0    0.0000
     36 H         150.7938  193.3176  -26.7542 H         5        0    0.0000
     37 C         150.8452  191.7977  -25.1867 C.3       6        0    0.0000
     38 C         151.4416  192.7123  -24.1112 C.3       6        0    0.0000
     39 H         149.7559  191.7402  -25.0699 H         6        0    0.0000
     40 H         151.2292  190.7769  -25.0676 H         6        0    0.0000
     41 H         152.5312  192.7678  -24.2264 H         6        0    0.0000
     42 H         151.0596  193.7337  -24.2319 H         6        0    0.0000
     43 C         151.1114  192.2175  -22.6608 C.3       7        0    0.0000
     44 C         152.2299  192.5470  -21.6660 C.3       7        0    0.0000
     45 H         150.1707  192.6787  -22.3354 H         7        0    0.0000
     46 H         150.9387  191.1345  -22.6874 H         7        0    0.0000
     47 H         153.1933  192.1916  -22.0520 H         7        0    0.0000
     48 H         152.3197  193.6340  -21.5474 H         7        0    0.0000
     49 C         151.9813  191.9039  -20.2581 C.3       8        0    0.0000
     50 C         152.0465  192.9371  -19.1279 C.3       8        0    0.0000
     51 H         151.0005  191.4122  -20.2622 H         8        0    0.0000
     52 H         152.7275  191.1171  -20.0921 H         8        0    0.0000
     53 H         153.0911  193.1264  -18.8512 H         8        0    0.0000
     54 H         151.6324  193.8941  -19.4688 H         8        0    0.0000
     55 C         151.2622  192.4727  -17.8525 C.3       9        0    0.0000
     56 C         152.1360  192.4939  -16.5935 C.3       9        0    0.0000
     57 H         150.3906  193.1249  -17.7165 H         9        0    0.0000
     58 H         150.8747  191.4609  -18.0246 H         9        0    0.0000
     59 H         153.1298  192.0873  -16.8185 H         9        0    0.0000
     60 H         152.2870  193.5273  -16.2578 H         9        0    0.0000
     61 C         151.5062  191.6680  -15.4193 C.3      10        0    0.0000
     62 C         151.8490  192.2563  -14.0462 C.3      10        0    0.0000
     63 H         150.4178  191.6358  -15.5537 H        10        0    0.0000
     64 H         151.8624  190.6325  -15.4845 H        10        0    0.0000
     65 H         152.9234  192.1526  -13.8501 H        10        0    0.0000
     66 H         151.6284  193.3309  -14.0317 H        10        0    0.0000
     67 C         151.0544  191.5617  -12.8871 C.3      11        0    0.0000
     68 C         151.5334  192.0128  -11.5028 C.3      11        0    0.0000
     69 H         149.9869  191.7848  -13.0069 H        11        0    0.0000
     70 H         151.1621  190.4745  -12.9865 H        11        0    0.0000
     71 H         152.6095  191.8269  -11.3981 H        11        0    0.0000
     72 H         151.3879  193.0941  -11.3884 H        11        0    0.0000
     73 C         150.7782  191.2758  -10.3436 C.3      12        0    0.0000
     74 C         151.2480  191.7363   -8.9593 C.3      12        0    0.0000
     75 H         149.7012  191.4538  -10.4538 H        12        0    0.0000
     76 H         150.9315  190.1950  -10.4526 H        12        0    0.0000
     77 H         152.3248  191.5579   -8.8489 H        12        0    0.0000
     78 H         151.0950  192.8172   -8.8505 H        12        0    0.0000
     79 C         150.4922  190.9998   -7.8000 C.3      13        0    0.0000
     80 C         150.9625  191.4599   -6.4157 C.3      13        0    0.0000
     81 H         149.4155  191.1788   -7.9101 H        13        0    0.0000
     82 H         150.6448  189.9189   -7.9091 H        13        0    0.0000
     83 H         152.0395  191.2824   -6.3061 H        13        0    0.0000
     84 H         150.8086  192.5406   -6.3061 H        13        0    0.0000
     85 C         150.2082  190.7220   -5.2564 C.3      14        0    0.0000
     86 C         150.6779  191.1826   -3.8722 C.3      14        0    0.0000
     87 H         149.1311  190.8990   -5.3664 H        14        0    0.0000
     88 H         150.3626  189.6413   -5.3657 H        14        0    0.0000
     89 H         151.7565  191.0128   -3.7651 H        14        0    0.0000
     90 H         150.5163  192.2619   -3.7600 H        14        0    0.0000
     91 C         149.9315  190.4366   -2.7129 C.3      15        0    0.0000
     92 C         150.3944  190.9041   -1.3286 C.3      15        0    0.0000
     93 H         148.8525  190.6006   -2.8240 H        15        0    0.0000
     94 H         150.0990  189.3578   -2.8211 H        15        0    0.0000
     95 H         151.4704  190.7255   -1.2116 H        15        0    0.0000
     96 H         150.2417  191.9857   -1.2263 H        15        0    0.0000
     97 C         149.6320  190.1743   -0.1695 C.3      16        0    0.0000
     98 C         149.8686  190.8399    1.1907 C.3      16        0    0.0000
     99 H         148.5599  190.1650   -0.4023 H        16        0    0.0000
    100 H         149.9565  189.1269   -0.1373 H        16        0    0.0000
    101 H         150.7097  190.3577    1.7042 H        16        0    0.0000
    102 H         150.1459  191.8921    1.0515 H        16        0    0.0000
    103 C         148.6044  190.7685    2.1150 C.3      17        0    0.0000
    104 C         148.8538  191.3982    3.4899 C.3      17        0    0.0000
    105 H         147.7711  191.2766    1.6141 H        17        0    0.0000
    106 H         148.3095  189.7181    2.2302 H        17        0    0.0000
    107 H         149.7041  190.9076    3.9797 H        17        0    0.0000
    108 H         149.1230  192.4556    3.3761 H        17        0    0.0000
    109 C         147.6016  191.2935    4.4272 C.3      18        0    0.0000
    110 C         147.8548  191.9133    5.8060 C.3      18        0    0.0000
    111 H         146.7534  191.7912    3.9410 H        18        0    0.0000
    112 H         147.3275  190.2367    4.5344 H        18        0    0.0000
    113 H         148.7067  191.4196    6.2896 H        18        0    0.0000
    114 H         148.1230  192.9717    5.6991 H        18        0    0.0000
    115 C         146.6053  191.8011    6.7462 C.3      19        0    0.0000
    116 C         146.8592  192.4189    8.1256 C.3      19        0    0.0000
    117 H         145.7538  192.2962    6.2632 H        19        0    0.0000
    118 H         146.3361  190.7429    6.8517 H        19        0    0.0000
    119 H         147.7108  191.9239    8.6086 H        19        0    0.0000
    120 H         147.1284  193.4772    8.0201 H        19        0    0.0000
    121 C         145.6098  192.3068    9.0658 C.3      20        0    0.0000
    122 C         145.8642  192.9232   10.4458 C.3      20        0    0.0000
    123 H         144.7585  192.8029    8.5834 H        20        0    0.0000
    124 H         145.3398  191.2486    9.1704 H        20        0    0.0000
    125 H         145.9053  194.0166   10.3676 H        20        0    0.0000
    126 H         145.0336  192.6867   11.1223 H        20        0    0.0000
    127 C         147.1999  192.4120   11.0877 C.3      21        0    0.0000
    128 C         147.6207  193.2514   12.2991 C.3      21        0    0.0000
    129 H         147.0716  191.3632   11.3831 H        21        0    0.0000
    130 H         147.9884  192.4303   10.3251 H        21        0    0.0000
    131 H         148.0204  192.6009   13.0869 H        21        0    0.0000
    132 H         148.4283  193.9387   12.0182 H        21        0    0.0000
    133 C         146.4300  194.0843   12.8872 C.3      22        0    0.0000
    134 C         146.8621  194.9624   14.0668 C.3      22        0    0.0000
    135 H         146.0064  194.7073   12.0898 H        22        0    0.0000
    136 H         145.6375  193.3942   13.2025 H        22        0    0.0000
    137 H         147.2857  194.3393   14.8642 H        22        0    0.0000
    138 H         147.6546  195.6524   13.7515 H        22        0    0.0000
    139 H         146.0342  195.5415   14.4757 H        22        0    0.0000
    140 H         149.2798  191.7487  -40.4349 H         0        0    0.0000
@<TRIPOS>BOND
     1     1     2      1
     2     1     3      1
     3     1     4      1
     4     1   140      H
     5     2     5      1
     6     2     6      1
     7     2     7      1
     8     7     8      1
     9     7     9      1
    10     7    10      1
    11     8    11      1
    12     8    12      1
    13     8    13      1
    14    13    14      1
    15    13    15      1
    16    13    16      1
    17    14    17      1
    18    14    18      1
    19    14    19      1
    20    19    20      1
    21    19    21      1
    22    19    22      1
    23    20    23      1
    24    20    24      1
    25    20    25      1
    26    25    26      1
    27    25    27      1
    28    25    28      1
    29    26    29      1
    30    26    30      1
    31    26    31      1
    32    31    32      1
    33    31    33      1
    34    31    34      1
    35    32    35      1
    36    32    36      1
    37    32    37      1
    38    37    38      1
    39    37    39      1
    40    37    40      1
    41    38    41      1
    42    38    42      1
    43    38    43      1
    44    43    44      1
    45    43    45      1
    46    43    46      1
    47    44    47      1
    48    44    48      1
    49    44    49      1
    50    49    50      1
    51    49    51      1
    52    49    52      1
    53    50    53      1
    54    50    54      1
    55    50    55      1
    56    55    56      1
    57    55    57      1
    58    55    58      1
    59    56    59      1
    60    56    60      1
    61    56    61      1
    62    61    62      1
    63    61    63      1
    64    61    64      1
    65    62    65      1
    66    62    66      1
    67    62    67      1
    68    67    68      1
    69    67    69      1
    70    67    70      1
    71    68    71      1
    72    68    72      1
    73    68    73      1
    74    73    74      1
    75    73    75      1
    76    73    76      1
    77    74    77      1
    78    74    78      1
    79    74    79      1
    80    79    80      1
    81    79    81      1
    82    79    82      1
    83    80    83      1
    84    80    84      1
    85    80    85      1
    86    85    86      1
    87    85    87      1
    88    85    88      1
    89    86    89      1
    90    86    90      1
    91    86    91      1
    92    91    92      1
    93    91    93      1
    94    91    94      1
    95    92    95      1
    96    92    96      1
    97    92    97      1
    98    97    98      1
    99    97    99      1
   100    97   100      1
   101    98   101      1
   102    98   102      1
   103    98   103      1
   104   103   104      1
   105   103   105      1
   106   103   106      1
   107   104   107      1
   108   104   108      1
   109   104   109      1
   110   109   110      1
   111   109   111      1
   112   109   112      1
   113   110   113      1
   114   110   114      1
   115   110   115      1
   116   115   116      1
   117   115   117      1
   118   115   118      1
   119   116   119      1
   120   116   120      1
   121   116   121      1
   122   121   122      1
   123   121   123      1
   124   121   124      1
   125   122   125      1
   126   122   126      1
   127   122   127      1
   128   127   128      1
   129   127   129      1
   130   127   130      1
   131   128   131      1
   132   128   132      1
   133   128   133      1
   134   133   134      1
   135   133   135      1
   136   133   136      1
   137   134   137      1
   138   134   138      1
   139   134   139      H
