###
### Created by PolyChef-cpp17 on Thu Feb 27 19:40:30 2025
###

@<TRIPOS>MOLECULE
NO_INFO
134 133 1 0 0
SMALL
USER_CHARGES


@<TRIPOS>ATOM
      1 C         139.2798    1.2287  120.6551 C.3       0        0    0.0000
      2 C         138.4513    0.0775  120.0742 C.3       0        0    0.0000
      3 H         138.8875    2.1902  120.3015 H         0        0    0.0000
      4 H         140.3161    1.1621  120.3014 H         0        0    0.0000
      5 H         138.4066   -0.7525  120.7902 H         0        0    0.0000
      6 H         137.4178    0.4050  119.9067 H         0        0    0.0000
      7 C         139.0386   -0.4535  118.7212 C.3       1        0    0.0000
      8 C         139.6368    0.6697  117.8671 C.3       1        0    0.0000
      9 H         139.8043   -1.2082  118.9401 H         1        0    0.0000
     10 H         138.2421   -0.9646  118.1663 H         1        0    0.0000
     11 H         138.9468    1.5217  117.8292 H         1        0    0.0000
     12 H         140.5648    1.0359  118.3235 H         1        0    0.0000
     13 C         139.9442    0.2029  116.4024 C.3       2        0    0.0000
     14 C         139.8906    1.3613  115.4003 C.3       2        0    0.0000
     15 H         140.9353   -0.2669  116.3817 H         2        0    0.0000
     16 H         139.2219   -0.5729  116.1197 H         2        0    0.0000
     17 H         138.9718    1.9427  115.5462 H         2        0    0.0000
     18 H         140.7286    2.0477  115.5737 H         2        0    0.0000
     19 C         139.9435    0.8643  113.9145 C.3       3        0    0.0000
     20 C         139.8139    2.0163  112.9118 C.3       3        0    0.0000
     21 H         140.8882    0.3302  113.7537 H         3        0    0.0000
     22 H         139.1388    0.1357  113.7564 H         3        0    0.0000
     23 H         138.8756    2.5587  113.0813 H         3        0    0.0000
     24 H         140.6265    2.7381  113.0610 H         3        0    0.0000
     25 C         139.8478    1.5173  111.4261 C.3       4        0    0.0000
     26 C         139.9823    2.6728  110.4282 C.3       4        0    0.0000
     27 H         140.6846    0.8180  111.3069 H         4        0    0.0000
     28 H         138.9314    0.9494  111.2228 H         4        0    0.0000
     29 H         139.1253    3.3514  110.5207 H         4        0    0.0000
     30 H         140.8781    3.2638  110.6555 H         4        0    0.0000
     31 C         140.0712    2.1703  108.9459 C.3       5        0    0.0000
     32 C         139.0881    2.9014  108.0249 C.3       5        0    0.0000
     33 H         141.0982    2.3097  108.5863 H         5        0    0.0000
     34 H         139.8740    1.0913  108.9258 H         5        0    0.0000
     35 H         138.1216    3.0253  108.5289 H         5        0    0.0000
     36 H         139.4593    3.9096  107.8030 H         5        0    0.0000
     37 C         138.8596    2.1385  106.6746 C.3       6        0    0.0000
     38 C         139.3318    2.9489  105.4625 C.3       6        0    0.0000
     39 H         139.3909    1.1795  106.7160 H         6        0    0.0000
     40 H         137.7925    1.9034  106.5774 H         6        0    0.0000
     41 H         138.5298    3.6143  105.1193 H         6        0    0.0000
     42 H         140.1749    3.5915  105.7449 H         6        0    0.0000
     43 C         139.7726    2.0320  104.2698 C.3       7        0    0.0000
     44 C         139.3203    2.5852  102.9139 C.3       7        0    0.0000
     45 H         140.8646    1.9282  104.2885 H         7        0    0.0000
     46 H         139.3580    1.0280  104.4237 H         7        0    0.0000
     47 H         138.2617    2.8694  102.9578 H         7        0    0.0000
     48 H         139.8815    3.4966  102.6734 H         7        0    0.0000
     49 C         139.5178    1.5493  101.7539 C.3       8        0    0.0000
     50 C         139.3989    2.1972  100.3701 C.3       8        0    0.0000
     51 H         140.5019    1.0773  101.8650 H         8        0    0.0000
     52 H         138.7720    0.7519  101.8613 H         8        0    0.0000
     53 H         138.3924    2.6120  100.2341 H         8        0    0.0000
     54 H         140.0996    3.0372  100.2865 H         8        0    0.0000
     55 C         139.6875    1.1813   99.2116 C.3       9        0    0.0000
     56 C         139.5171    1.8156   97.8269 C.3       9        0    0.0000
     57 H         140.7082    0.7956   99.3257 H         9        0    0.0000
     58 H         139.0126    0.3229   99.3178 H         9        0    0.0000
     59 H         138.5011    2.2151   97.7185 H         9        0    0.0000
     60 H         140.2029    2.6645   97.7150 H         9        0    0.0000
     61 C         139.7845    0.7939   96.6684 C.3      10        0    0.0000
     62 C         139.6221    1.4304   95.2836 C.3      10        0    0.0000
     63 H         140.7984    0.3901   96.7801 H        10        0    0.0000
     64 H         139.0947   -0.0522   96.7768 H        10        0    0.0000
     65 H         138.6078    1.8331   95.1714 H        10        0    0.0000
     66 H         140.3110    2.2773   95.1756 H        10        0    0.0000
     67 C         139.8913    0.4091   94.1251 C.3      11        0    0.0000
     68 C         139.7271    1.0451   92.7403 C.3      11        0    0.0000
     69 H         140.9060    0.0073   94.2366 H        11        0    0.0000
     70 H         139.2031   -0.4383   94.2338 H        11        0    0.0000
     71 H         138.7132    1.4492   92.6298 H        11        0    0.0000
     72 H         140.4171    1.8910   92.6307 H        11        0    0.0000
     73 C         139.9928    0.0230   91.5818 C.3      12        0    0.0000
     74 C         139.8223    0.6573   90.1971 C.3      12        0    0.0000
     75 H         141.0084   -0.3775   91.6896 H        12        0    0.0000
     76 H         139.3061   -0.8252   91.6942 H        12        0    0.0000
     77 H         138.8047    1.0522   90.0869 H        12        0    0.0000
     78 H         140.5044    1.5094   90.0870 H        12        0    0.0000
     79 C         140.0967   -0.3625   89.0386 C.3      13        0    0.0000
     80 C         139.9271    0.2721   87.6538 C.3      13        0    0.0000
     81 H         141.1140   -0.7579   89.1491 H        13        0    0.0000
     82 H         139.4140   -1.2143   89.1482 H        13        0    0.0000
     83 H         138.9089    0.6651   87.5423 H        13        0    0.0000
     84 H         140.6078    1.1255   87.5452 H        13        0    0.0000
     85 C         140.2051   -0.7468   86.4953 C.3      14        0    0.0000
     86 C         140.0373   -0.1118   85.1105 C.3      14        0    0.0000
     87 H         141.2228   -1.1408   86.6076 H        14        0    0.0000
     88 H         139.5234   -1.5996   86.6032 H        14        0    0.0000
     89 H         139.0249    0.2975   85.0046 H        14        0    0.0000
     90 H         140.7310    0.7304   84.9963 H        14        0    0.0000
     91 C         140.2917   -1.1368   83.9521 C.3      15        0    0.0000
     92 C         140.1419   -0.4973   82.5673 C.3      15        0    0.0000
     93 H         141.2991   -1.5560   84.0658 H        15        0    0.0000
     94 H         139.5889   -1.9724   84.0586 H        15        0    0.0000
     95 H         139.1985    0.0597   82.5103 H        15        0    0.0000
     96 H         140.9470    0.2287   82.3991 H        15        0    0.0000
     97 C         140.1714   -1.5603   81.4156 C.3      16        0    0.0000
     98 C         140.0209   -0.9209   80.0309 C.3      16        0    0.0000
     99 H         141.1151   -2.1169   81.4723 H        16        0    0.0000
    100 H         139.3667   -2.2867   81.5841 H        16        0    0.0000
    101 H         140.8392   -0.2123   79.8528 H        16        0    0.0000
    102 H         140.0945   -1.6895   79.2516 H        16        0    0.0000
    103 C         138.6558   -0.1672   79.8698 C.3      17        0    0.0000
    104 C         138.2680    0.0244   78.3994 C.3      17        0    0.0000
    105 H         137.8755   -0.7329   80.3939 H        17        0    0.0000
    106 H         138.7284    0.8067   80.3696 H        17        0    0.0000
    107 H         138.7436    0.9285   77.9997 H        17        0    0.0000
    108 H         138.6375   -0.8171   77.8003 H        17        0    0.0000
    109 C         136.7169    0.1410   78.2044 C.3      18        0    0.0000
    110 C         136.3275    0.3052   76.7311 C.3      18        0    0.0000
    111 H         136.2397   -0.7542   78.6221 H        18        0    0.0000
    112 H         136.3504    0.9947   78.7878 H        18        0    0.0000
    113 H         136.7753    1.2199   76.3234 H        18        0    0.0000
    114 H         136.7252   -0.5302   76.1416 H        18        0    0.0000
    115 C         134.7741    0.3705   76.5310 C.3      19        0    0.0000
    116 C         134.3842    0.5197   75.0563 C.3      19        0    0.0000
    117 H         134.3252   -0.5393   76.9485 H        19        0    0.0000
    118 H         134.3778    1.2125   77.1119 H        19        0    0.0000
    119 H         134.8116    1.4429   74.6458 H        19        0    0.0000
    120 H         134.8025   -0.3085   74.4709 H        19        0    0.0000
    121 C         132.8301    0.5481   74.8526 C.3      20        0    0.0000
    122 C         132.4403    0.6991   73.3780 C.3      20        0    0.0000
    123 H         132.4029   -0.3757   75.2619 H        20        0    0.0000
    124 H         132.4117    1.3756   75.4389 H        20        0    0.0000
    125 H         131.3606    0.5469   73.2569 H        20        0    0.0000
    126 H         132.6552    1.7186   73.0346 H        20        0    0.0000
    127 C         133.2002   -0.3155   72.4557 C.3      21        0    0.0000
    128 C         133.1881    0.1151   70.9848 C.3      21        0    0.0000
    129 H         134.2337   -0.4110   72.8112 H        21        0    0.0000
    130 H         132.7379   -1.3047   72.5619 H        21        0    0.0000
    131 H         132.1547    0.2106   70.6293 H        21        0    0.0000
    132 H         133.6505    1.1043   70.8787 H        21        0    0.0000
    133 H         133.7165   -0.5903   70.3435 H        21        0    0.0000
    134 H         139.2798    1.2287  121.7450 H         0        0    0.0000
@<TRIPOS>BOND
     1     1     2      1
     2     1     3      1
     3     1     4      1
     4     1   134      H
     5     2     5      1
     6     2     6      1
     7     2     7      1
     8     7     8      1
     9     7     9      1
    10     7    10      1
    11     8    11      1
    12     8    12      1
    13     8    13      1
    14    13    14      1
    15    13    15      1
    16    13    16      1
    17    14    17      1
    18    14    18      1
    19    14    19      1
    20    19    20      1
    21    19    21      1
    22    19    22      1
    23    20    23      1
    24    20    24      1
    25    20    25      1
    26    25    26      1
    27    25    27      1
    28    25    28      1
    29    26    29      1
    30    26    30      1
    31    26    31      1
    32    31    32      1
    33    31    33      1
    34    31    34      1
    35    32    35      1
    36    32    36      1
    37    32    37      1
    38    37    38      1
    39    37    39      1
    40    37    40      1
    41    38    41      1
    42    38    42      1
    43    38    43      1
    44    43    44      1
    45    43    45      1
    46    43    46      1
    47    44    47      1
    48    44    48      1
    49    44    49      1
    50    49    50      1
    51    49    51      1
    52    49    52      1
    53    50    53      1
    54    50    54      1
    55    50    55      1
    56    55    56      1
    57    55    57      1
    58    55    58      1
    59    56    59      1
    60    56    60      1
    61    56    61      1
    62    61    62      1
    63    61    63      1
    64    61    64      1
    65    62    65      1
    66    62    66      1
    67    62    67      1
    68    67    68      1
    69    67    69      1
    70    67    70      1
    71    68    71      1
    72    68    72      1
    73    68    73      1
    74    73    74      1
    75    73    75      1
    76    73    76      1
    77    74    77      1
    78    74    78      1
    79    74    79      1
    80    79    80      1
    81    79    81      1
    82    79    82      1
    83    80    83      1
    84    80    84      1
    85    80    85      1
    86    85    86      1
    87    85    87      1
    88    85    88      1
    89    86    89      1
    90    86    90      1
    91    86    91      1
    92    91    92      1
    93    91    93      1
    94    91    94      1
    95    92    95      1
    96    92    96      1
    97    92    97      1
    98    97    98      1
    99    97    99      1
   100    97   100      1
   101    98   101      1
   102    98   102      1
   103    98   103      1
   104   103   104      1
   105   103   105      1
   106   103   106      1
   107   104   107      1
   108   104   108      1
   109   104   109      1
   110   109   110      1
   111   109   111      1
   112   109   112      1
   113   110   113      1
   114   110   114      1
   115   110   115      1
   116   115   116      1
   117   115   117      1
   118   115   118      1
   119   116   119      1
   120   116   120      1
   121   116   121      1
   122   121   122      1
   123   121   123      1
   124   121   124      1
   125   122   125      1
   126   122   126      1
   127   122   127      1
   128   127   128      1
   129   127   129      1
   130   127   130      1
   131   128   131      1
   132   128   132      1
   133   128   133      H
