###
### Created by PolyChef-cpp17 on Thu Feb 27 19:40:30 2025
###

@<TRIPOS>MOLECULE
NO_INFO
140 139 1 0 0
SMALL
USER_CHARGES


@<TRIPOS>ATOM
      1 C          39.2798  174.4287  120.6551 C.3       0        0    0.0000
      2 C          38.4513  173.2775  120.0742 C.3       0        0    0.0000
      3 H          38.8875  175.3902  120.3015 H         0        0    0.0000
      4 H          40.3162  174.3621  120.3014 H         0        0    0.0000
      5 H          38.4076  172.4471  120.7898 H         0        0    0.0000
      6 H          37.4175  173.6047  119.9078 H         0        0    0.0000
      7 C          39.0377  172.7476  118.7204 C.3       1        0    0.0000
      8 C          39.6364  173.8713  117.8673 C.3       1        0    0.0000
      9 H          39.8029  171.9921  118.9381 H         1        0    0.0000
     10 H          38.2406  172.2377  118.1652 H         1        0    0.0000
     11 H          38.9470  174.7238  117.8306 H         1        0    0.0000
     12 H          40.5648  174.2363  118.3238 H         1        0    0.0000
     13 C          39.9428  173.4059  116.4020 C.3       2        0    0.0000
     14 C          39.8894  174.5654  115.4012 C.3       2        0    0.0000
     15 H          40.9337  172.9356  116.3803 H         2        0    0.0000
     16 H          39.2199  172.6308  116.1187 H         2        0    0.0000
     17 H          38.9726  175.1492  115.5504 H         2        0    0.0000
     18 H          40.7299  175.2494  115.5726 H         2        0    0.0000
     19 C          39.9365  174.0698  113.9147 C.3       3        0    0.0000
     20 C          39.8451  175.2267  112.9135 C.3       3        0    0.0000
     21 H          40.8665  173.5094  113.7580 H         3        0    0.0000
     22 H          39.1122  173.3646  113.7508 H         3        0    0.0000
     23 H          38.9191  175.7922  113.0757 H         3        0    0.0000
     24 H          40.6741  175.9275  113.0719 H         3        0    0.0000
     25 C          39.8802  174.7301  111.4270 C.3       4        0    0.0000
     26 C          39.8868  175.8913  110.4267 C.3       4        0    0.0000
     27 H          40.7705  174.1053  111.2839 H         4        0    0.0000
     28 H          39.0107  174.0852  111.2490 H         4        0    0.0000
     29 H          38.9900  176.5088  110.5612 H         4        0    0.0000
     30 H          40.7491  176.5434  110.6131 H         4        0    0.0000
     31 C          39.9403  175.3951  108.9407 C.3       5        0    0.0000
     32 C          38.8814  176.0723  108.0637 C.3       5        0    0.0000
     33 H          40.9423  175.5900  108.5387 H         5        0    0.0000
     34 H          39.8011  174.3070  108.9260 H         5        0    0.0000
     35 H          37.9256  176.1234  108.5998 H         5        0    0.0000
     36 H          39.1772  177.1065  107.8478 H         5        0    0.0000
     37 C          38.6607  175.3165  106.7082 C.3       6        0    0.0000
     38 C          39.0043  176.1875  105.4948 C.3       6        0    0.0000
     39 H          39.2761  174.4082  106.7056 H         6        0    0.0000
     40 H          37.6152  174.9888  106.6522 H         6        0    0.0000
     41 H          38.1177  176.7459  105.1695 H         6        0    0.0000
     42 H          39.7624  176.9316  105.7685 H         6        0    0.0000
     43 C          39.5391  175.3413  104.2884 C.3       7        0    0.0000
     44 C          38.9327  175.7860  102.9529 C.3       7        0    0.0000
     45 H          40.6322  175.4281  104.2527 H         7        0    0.0000
     46 H          39.3129  174.2834  104.4706 H         7        0    0.0000
     47 H          37.8452  175.8923  103.0504 H         7        0    0.0000
     48 H          39.3219  176.7728  102.6730 H         7        0    0.0000
     49 C          39.2398  174.7748  101.7950 C.3       8        0    0.0000
     50 C          39.0678  175.4081  100.4099 C.3       8        0    0.0000
     51 H          40.2648  174.4021  101.9136 H         8        0    0.0000
     52 H          38.5755  173.9077  101.8973 H         8        0    0.0000
     53 H          38.0217  175.7014  100.2577 H         8        0    0.0000
     54 H          39.6656  176.3252  100.3388 H         8        0    0.0000
     55 C          39.4934  174.4366   99.2555 C.3       9        0    0.0000
     56 C          39.2487  175.0406   97.8683 C.3       9        0    0.0000
     57 H          40.5552  174.1883   99.3757 H         9        0    0.0000
     58 H          38.9363  173.4974   99.3604 H         9        0    0.0000
     59 H          38.1901  175.3052   97.7546 H         9        0    0.0000
     60 H          39.8196  175.9708   97.7570 H         9        0    0.0000
     61 C          39.6512  174.0596   96.7137 C.3      10        0    0.0000
     62 C          39.4010  174.6613   95.3265 C.3      10        0    0.0000
     63 H          40.7109  173.7984   96.8250 H        10        0    0.0000
     64 H          39.0835  173.1277   96.8275 H        10        0    0.0000
     65 H          38.3416  174.9238   95.2159 H        10        0    0.0000
     66 H          39.9699  175.5924   95.2122 H        10        0    0.0000
     67 C          39.8016  173.6795   94.1720 C.3      11        0    0.0000
     68 C          39.5593  174.2844   92.7848 C.3      11        0    0.0000
     69 H          40.8594  173.4121   94.2863 H        11        0    0.0000
     70 H          39.2282  172.7508   94.2828 H        11        0    0.0000
     71 H          38.5018  174.5534   92.6712 H        11        0    0.0000
     72 H          40.1340  175.2122   92.6734 H        11        0    0.0000
     73 C          39.9575  173.3016   91.6302 C.3      12        0    0.0000
     74 C          39.7153  173.9065   90.2431 C.3      12        0    0.0000
     75 H          41.0149  173.0325   91.7439 H        12        0    0.0000
     76 H          39.3826  172.3738   91.7416 H        12        0    0.0000
     77 H          38.6575  174.1744   90.1289 H        12        0    0.0000
     78 H          40.2891  174.8349   90.1322 H        12        0    0.0000
     79 C          40.1151  172.9244   89.0885 C.3      13        0    0.0000
     80 C          39.8667  173.5269   87.7013 C.3      13        0    0.0000
     81 H          41.1741  172.6603   89.1998 H        13        0    0.0000
     82 H          39.5448  171.9941   89.2022 H        13        0    0.0000
     83 H          38.8080  173.7922   87.5905 H        13        0    0.0000
     84 H          40.4381  174.4564   87.5871 H        13        0    0.0000
     85 C          40.2648  172.5440   86.5468 C.3      14        0    0.0000
     86 C          40.0201  173.1479   85.1596 C.3      14        0    0.0000
     87 H          41.3228  172.2764   86.6593 H        14        0    0.0000
     88 H          39.6913  171.6155   86.6593 H        14        0    0.0000
     89 H          38.9615  173.4124   85.0458 H        14        0    0.0000
     90 H          40.5909  174.0781   85.0482 H        14        0    0.0000
     91 C          40.4226  172.1669   84.0050 C.3      15        0    0.0000
     92 C          40.1794  172.7714   82.6178 C.3      15        0    0.0000
     93 H          41.4809  171.9014   84.1195 H        15        0    0.0000
     94 H          39.8509  171.2371   84.1157 H        15        0    0.0000
     95 H          39.1209  173.0358   82.5030 H        15        0    0.0000
     96 H          40.7503  173.7018   82.5076 H        15        0    0.0000
     97 C          40.5834  171.7909   81.4633 C.3      16        0    0.0000
     98 C          40.3414  172.3960   80.0761 C.3      16        0    0.0000
     99 H          41.6417  171.5258   81.5787 H        16        0    0.0000
    100 H          40.0118  170.8610   81.5730 H        16        0    0.0000
    101 H          41.0820  173.1795   79.8730 H        16        0    0.0000
    102 H          40.4740  171.6291   79.3029 H        16        0    0.0000
    103 C          38.9056  173.0099   79.9379 C.3      17        0    0.0000
    104 C          38.6589  173.6028   78.5463 C.3      17        0    0.0000
    105 H          38.1652  172.2289   80.1507 H        17        0    0.0000
    106 H          38.7766  173.7837   80.7048 H        17        0    0.0000
    107 H          37.8089  173.1001   78.0685 H        17        0    0.0000
    108 H          38.3905  174.6631   78.6313 H        17        0    0.0000
    109 C          39.9124  173.4721   77.6140 C.3      18        0    0.0000
    110 C          39.5655  173.7010   76.1388 C.3      18        0    0.0000
    111 H          40.6713  174.1948   77.9386 H        18        0    0.0000
    112 H          40.3497  172.4748   77.7473 H        18        0    0.0000
    113 H          38.8440  174.5221   76.0451 H        18        0    0.0000
    114 H          40.4621  174.0047   75.5843 H        18        0    0.0000
    115 C          38.9639  172.4202   75.4643 C.3      19        0    0.0000
    116 C          38.4325  172.7014   74.0545 C.3      19        0    0.0000
    117 H          39.7379  171.6437   75.4266 H        19        0    0.0000
    118 H          38.1582  172.0314   76.0994 H        19        0    0.0000
    119 H          38.8872  173.6171   73.6568 H        19        0    0.0000
    120 H          38.7174  171.8878   73.3759 H        19        0    0.0000
    121 C          36.8730  172.8588   74.0278 C.3      20        0    0.0000
    122 C          36.2784  172.5208   72.6562 C.3      20        0    0.0000
    123 H          36.4387  172.2080   74.7968 H        20        0    0.0000
    124 H          36.6168  173.8888   74.3054 H        20        0    0.0000
    125 H          36.3786  173.3795   71.9808 H        20        0    0.0000
    126 H          36.8349  171.6935   72.1985 H        20        0    0.0000
    127 C          34.7649  172.1228   72.7465 C.3      21        0    0.0000
    128 C          34.1698  171.7866   71.3747 C.3      21        0    0.0000
    129 H          34.6649  171.2632   73.4208 H        21        0    0.0000
    130 H          34.2086  172.9496   73.2054 H        21        0    0.0000
    131 H          33.1687  171.3542   71.4947 H        21        0    0.0000
    132 H          34.0487  172.7022   70.7826 H        21        0    0.0000
    133 C          35.0622  170.7793   70.5707 C.3      22        0    0.0000
    134 C          34.6535  170.6900   69.0963 C.3      22        0    0.0000
    135 H          36.1104  171.0927   70.6521 H        22        0    0.0000
    136 H          34.9916  169.7908   71.0412 H        22        0    0.0000
    137 H          33.6053  170.3766   69.0149 H        22        0    0.0000
    138 H          34.7242  171.6785   68.6258 H        22        0    0.0000
    139 H          35.2740  169.9896   68.5373 H        22        0    0.0000
    140 H          39.2798  174.4287  121.7450 H         0        0    0.0000
@<TRIPOS>BOND
     1     1     2      1
     2     1     3      1
     3     1     4      1
     4     1   140      H
     5     2     5      1
     6     2     6      1
     7     2     7      1
     8     7     8      1
     9     7     9      1
    10     7    10      1
    11     8    11      1
    12     8    12      1
    13     8    13      1
    14    13    14      1
    15    13    15      1
    16    13    16      1
    17    14    17      1
    18    14    18      1
    19    14    19      1
    20    19    20      1
    21    19    21      1
    22    19    22      1
    23    20    23      1
    24    20    24      1
    25    20    25      1
    26    25    26      1
    27    25    27      1
    28    25    28      1
    29    26    29      1
    30    26    30      1
    31    26    31      1
    32    31    32      1
    33    31    33      1
    34    31    34      1
    35    32    35      1
    36    32    36      1
    37    32    37      1
    38    37    38      1
    39    37    39      1
    40    37    40      1
    41    38    41      1
    42    38    42      1
    43    38    43      1
    44    43    44      1
    45    43    45      1
    46    43    46      1
    47    44    47      1
    48    44    48      1
    49    44    49      1
    50    49    50      1
    51    49    51      1
    52    49    52      1
    53    50    53      1
    54    50    54      1
    55    50    55      1
    56    55    56      1
    57    55    57      1
    58    55    58      1
    59    56    59      1
    60    56    60      1
    61    56    61      1
    62    61    62      1
    63    61    63      1
    64    61    64      1
    65    62    65      1
    66    62    66      1
    67    62    67      1
    68    67    68      1
    69    67    69      1
    70    67    70      1
    71    68    71      1
    72    68    72      1
    73    68    73      1
    74    73    74      1
    75    73    75      1
    76    73    76      1
    77    74    77      1
    78    74    78      1
    79    74    79      1
    80    79    80      1
    81    79    81      1
    82    79    82      1
    83    80    83      1
    84    80    84      1
    85    80    85      1
    86    85    86      1
    87    85    87      1
    88    85    88      1
    89    86    89      1
    90    86    90      1
    91    86    91      1
    92    91    92      1
    93    91    93      1
    94    91    94      1
    95    92    95      1
    96    92    96      1
    97    92    97      1
    98    97    98      1
    99    97    99      1
   100    97   100      1
   101    98   101      1
   102    98   102      1
   103    98   103      1
   104   103   104      1
   105   103   105      1
   106   103   106      1
   107   104   107      1
   108   104   108      1
   109   104   109      1
   110   109   110      1
   111   109   111      1
   112   109   112      1
   113   110   113      1
   114   110   114      1
   115   110   115      1
   116   115   116      1
   117   115   117      1
   118   115   118      1
   119   116   119      1
   120   116   120      1
   121   116   121      1
   122   121   122      1
   123   121   123      1
   124   121   124      1
   125   122   125      1
   126   122   126      1
   127   122   127      1
   128   127   128      1
   129   127   129      1
   130   127   130      1
   131   128   131      1
   132   128   132      1
   133   128   133      1
   134   133   134      1
   135   133   135      1
   136   133   136      1
   137   134   137      1
   138   134   138      1
   139   134   139      H
