###
### Created by PolyChef-cpp17 on Thu Feb 27 19:40:29 2025
###

@<TRIPOS>MOLECULE
NO_INFO
326 325 1 0 0
SMALL
USER_CHARGES


@<TRIPOS>ATOM
      1 C         169.2798   87.8287  120.6551 C.3       0        0    0.0000
      2 C         168.4513   86.6775  120.0742 C.3       0        0    0.0000
      3 H         168.8875   88.7902  120.3015 H         0        0    0.0000
      4 H         170.3161   87.7621  120.3014 H         0        0    0.0000
      5 H         168.4079   85.8469  120.7896 H         0        0    0.0000
      6 H         167.4174   87.0046  119.9081 H         0        0    0.0000
      7 C         169.0374   86.1479  118.7201 C.3       1        0    0.0000
      8 C         169.6337   87.2722  117.8661 C.3       1        0    0.0000
      9 H         169.8039   85.3937  118.9375 H         1        0    0.0000
     10 H         168.2406   85.6367  118.1658 H         1        0    0.0000
     11 H         168.9408   88.1219  117.8258 H         1        0    0.0000
     12 H         170.5593   87.6421  118.3242 H         1        0    0.0000
     13 C         169.9458   86.8049  116.4026 C.3       2        0    0.0000
     14 C         169.8816   87.9604  115.3977 C.3       2        0    0.0000
     15 H         170.9413   86.3444  116.3832 H         2        0    0.0000
     16 H         169.2308   86.0218  116.1215 H         2        0    0.0000
     17 H         168.9601   88.5371  115.5459 H         2        0    0.0000
     18 H         170.7165   88.6520  115.5659 H         2        0    0.0000
     19 C         169.9312   87.4600  113.9130 C.3       3        0    0.0000
     20 C         169.8371   88.6132  112.9078 C.3       3        0    0.0000
     21 H         170.8629   86.9017  113.7589 H         3        0    0.0000
     22 H         169.1091   86.7518  113.7509 H         3        0    0.0000
     23 H         168.9077   89.1745  113.0652 H         3        0    0.0000
     24 H         170.6620   89.3188  113.0667 H         3        0    0.0000
     25 C         169.8796   88.1122  111.4230 C.3       4        0    0.0000
     26 C         169.7164   89.2581  110.4184 C.3       4        0    0.0000
     27 H         170.8315   87.5944  111.2517 H         4        0    0.0000
     28 H         169.0860   87.3687  111.2779 H         4        0    0.0000
     29 H         168.7686   89.7815  110.5956 H         4        0    0.0000
     30 H         170.5151   89.9971  110.5577 H         4        0    0.0000
     31 C         169.7462   88.7554  108.9339 C.3       5        0    0.0000
     32 C         170.7020   89.5768  108.0616 C.3       5        0    0.0000
     33 H         170.0419   87.6990  108.9241 H         5        0    0.0000
     34 H         168.7295   88.8018  108.5244 H         5        0    0.0000
     35 H         170.2650   90.5600  107.8475 H         5        0    0.0000
     36 H         171.6399   89.7595  108.6005 H         5        0    0.0000
     37 C         171.0297   88.8632  106.7048 C.3       6        0    0.0000
     38 C         170.5829   89.6874  105.4923 C.3       6        0    0.0000
     39 H         172.1095   88.6762  106.6553 H         6        0    0.0000
     40 H         170.5392   87.8819  106.6939 H         6        0    0.0000
     41 H         169.7333   90.3261  105.7640 H         6        0    0.0000
     42 H         171.3915   90.3572  105.1743 H         6        0    0.0000
     43 C         170.1687   88.7842  104.2799 C.3       7        0    0.0000
     44 C         170.7266   89.3045  102.9506 C.3       7        0    0.0000
     45 H         170.5237   87.7623  104.4627 H         7        0    0.0000
     46 H         169.0737   88.7338  104.2344 H         7        0    0.0000
     47 H         170.2212   90.2368  102.6697 H         7        0    0.0000
     48 H         171.7919   89.5436  103.0576 H         7        0    0.0000
     49 C         170.5559   88.2670  101.7879 C.3       8        0    0.0000
     50 C         170.6472   88.9232  100.4058 C.3       8        0    0.0000
     51 H         171.3269   87.4931  101.8885 H         8        0    0.0000
     52 H         169.5877   87.7639  101.9022 H         8        0    0.0000
     53 H         169.9409   89.7600  100.3393 H         8        0    0.0000
     54 H         171.6491   89.3439  100.2546 H         8        0    0.0000
     55 C         170.3435   87.9123   99.2469 C.3       9        0    0.0000
     56 C         170.5365   88.5407   97.8624 C.3       9        0    0.0000
     57 H         170.9985   87.0393   99.3584 H         9        0    0.0000
     58 H         169.3138   87.5494   99.3550 H         9        0    0.0000
     59 H         169.8696   89.4038   97.7448 H         9        0    0.0000
     60 H         171.5615   88.9183   97.7603 H         9        0    0.0000
     61 C         170.2552   87.5232   96.7036 C.3      10        0    0.0000
     62 C         170.4379   88.1545   95.3190 C.3      10        0    0.0000
     63 H         170.9274   86.6636   96.8168 H        10        0    0.0000
     64 H         169.2328   87.1397   96.8102 H        10        0    0.0000
     65 H         169.7663   89.0145   95.2061 H        10        0    0.0000
     66 H         171.4605   88.5372   95.2121 H        10        0    0.0000
     67 C         170.1554   87.1372   94.1602 C.3      11        0    0.0000
     68 C         170.3279   87.7715   92.7756 C.3      11        0    0.0000
     69 H         170.8324   86.2808   94.2686 H        11        0    0.0000
     70 H         169.1356   86.7487   94.2716 H        11        0    0.0000
     71 H         169.6518   88.6286   92.6677 H        11        0    0.0000
     72 H         171.3482   88.1589   92.6638 H        11        0    0.0000
     73 C         170.0437   86.7547   91.6168 C.3      12        0    0.0000
     74 C         170.2193   87.3881   90.2322 C.3      12        0    0.0000
     75 H         170.7183   85.8964   91.7261 H        12        0    0.0000
     76 H         169.0227   86.3690   91.7273 H        12        0    0.0000
     77 H         169.5463   88.2476   90.1237 H        12        0    0.0000
     78 H         171.2410   87.7719   90.1210 H        12        0    0.0000
     79 C         169.9322   86.3721   89.0734 C.3      13        0    0.0000
     80 C         170.1138   87.0037   87.6888 C.3      13        0    0.0000
     81 H         170.6021   85.5104   89.1846 H        13        0    0.0000
     82 H         168.9090   85.9917   89.1821 H        13        0    0.0000
     83 H         169.4497   87.8702   87.5807 H        13        0    0.0000
     84 H         171.1393   87.3770   87.5772 H        13        0    0.0000
     85 C         169.8157   85.9909   86.5301 C.3      14        0    0.0000
     86 C         169.9963   86.6228   85.1455 C.3      14        0    0.0000
     87 H         170.4803   85.1247   86.6378 H        14        0    0.0000
     88 H         168.7904   85.6172   86.6421 H        14        0    0.0000
     89 H         169.3873   87.5317   85.0644 H        14        0    0.0000
     90 H         171.0402   86.9297   85.0053 H        14        0    0.0000
     91 C         169.5980   85.6428   83.9886 C.3      15        0    0.0000
     92 C         169.7780   86.2750   82.6040 C.3      15        0    0.0000
     93 H         170.2074   84.7342   84.0694 H        15        0    0.0000
     94 H         168.5542   85.3356   84.1290 H        15        0    0.0000
     95 H         168.9342   86.9398   82.3814 H        15        0    0.0000
     96 H         170.6815   86.8970   82.5891 H        15        0    0.0000
     97 C         169.8866   85.1989   81.4692 C.3      16        0    0.0000
     98 C         170.0960   85.8301   80.0883 C.3      16        0    0.0000
     99 H         170.7170   84.5212   81.7029 H        16        0    0.0000
    100 H         168.9736   84.5906   81.4702 H        16        0    0.0000
    101 H         169.1615   86.2849   79.7370 H        16        0    0.0000
    102 H         170.8350   86.6384   80.1524 H        16        0    0.0000
    103 C         170.5807   84.7854   79.0249 C.3      17        0    0.0000
    104 C         170.7902   85.4166   77.6440 C.3      17        0    0.0000
    105 H         171.5152   84.3306   79.3763 H        17        0    0.0000
    106 H         169.8416   83.9771   78.9608 H        17        0    0.0000
    107 H         169.8503   85.8523   77.2831 H        17        0    0.0000
    108 H         171.5130   86.2390   77.7121 H        17        0    0.0000
    109 C         171.3042   84.3783   76.5880 C.3      18        0    0.0000
    110 C         171.5128   85.0093   75.2069 C.3      18        0    0.0000
    111 H         172.2444   83.9430   76.9486 H        18        0    0.0000
    112 H         170.5816   83.5555   76.5203 H        18        0    0.0000
    113 H         170.5744   85.4512   74.8496 H        18        0    0.0000
    114 H         172.2410   85.8272   75.2732 H        18        0    0.0000
    115 C         172.0166   83.9687   74.1482 C.3      19        0    0.0000
    116 C         172.0820   84.5616   72.7364 C.3      19        0    0.0000
    117 H         173.0074   83.6078   74.4509 H        19        0    0.0000
    118 H         171.3474   83.0995   74.1606 H        19        0    0.0000
    119 H         171.0974   84.9476   72.4446 H        19        0    0.0000
    120 H         172.7726   85.4139   72.7179 H        19        0    0.0000
    121 C         172.5484   83.5101   71.6714 C.3      20        0    0.0000
    122 C         173.6789   84.0437   70.7847 C.3      20        0    0.0000
    123 H         172.8754   82.6012   72.1916 H        20        0    0.0000
    124 H         171.6873   83.2269   71.0535 H        20        0    0.0000
    125 H         173.2644   84.6578   69.9756 H        20        0    0.0000
    126 H         174.3391   84.6965   71.3691 H        20        0    0.0000
    127 C         174.5354   82.8910   70.1561 C.3      21        0    0.0000
    128 C         174.2726   82.7242   68.6554 C.3      21        0    0.0000
    129 H         175.5973   83.1040   70.3306 H        21        0    0.0000
    130 H         174.3109   81.9557   70.6835 H        21        0    0.0000
    131 H         173.2940   83.1466   68.3956 H        21        0    0.0000
    132 H         175.0200   83.2827   68.0783 H        21        0    0.0000
    133 C         174.3091   81.2219   68.2092 C.3      22        0    0.0000
    134 C         174.9639   81.0396   66.8355 C.3      22        0    0.0000
    135 H         174.8528   80.6416   68.9650 H        22        0    0.0000
    136 H         173.2833   80.8333   68.1915 H        22        0    0.0000
    137 H         174.3020   81.4237   66.0494 H        22        0    0.0000
    138 H         175.8908   81.6238   66.7801 H        22        0    0.0000
    139 C         175.2939   79.5381   66.5292 C.3      23        0    0.0000
    140 C         174.6003   79.0388   65.2569 C.3      23        0    0.0000
    141 H         176.3811   79.4275   66.4330 H        23        0    0.0000
    142 H         174.9899   78.9269   67.3879 H        23        0    0.0000
    143 H         173.7479   79.6855   65.0146 H        23        0    0.0000
    144 H         175.2901   79.0948   64.4057 H        23        0    0.0000
    145 C         174.0908   77.5630   65.3981 C.3      24        0    0.0000
    146 C         172.5820   77.4437   65.1563 C.3      24        0    0.0000
    147 H         174.6369   76.9308   64.6870 H        24        0    0.0000
    148 H         174.3410   77.1970   66.4016 H        24        0    0.0000
    149 H         172.2285   78.2933   64.5589 H        24        0    0.0000
    150 H         172.3645   76.5384   64.5761 H        24        0    0.0000
    151 C         171.7679   77.3938   66.4950 C.3      25        0    0.0000
    152 C         170.7660   76.2343   66.5226 C.3      25        0    0.0000
    153 H         172.4704   77.3040   67.3329 H        25        0    0.0000
    154 H         171.2426   78.3480   66.6252 H        25        0    0.0000
    155 H         169.7699   76.5909   66.2323 H        25        0    0.0000
    156 H         171.0536   75.4711   65.7889 H        25        0    0.0000
    157 C         170.6706   75.5650   67.9370 C.3      26        0    0.0000
    158 C         169.5891   76.2081   68.8121 C.3      26        0    0.0000
    159 H         170.4639   74.4953   67.8087 H        26        0    0.0000
    160 H         171.6476   75.6402   68.4303 H        26        0    0.0000
    161 H         168.8671   76.7447   68.1842 H        26        0    0.0000
    162 H         169.0266   75.4321   69.3460 H        26        0    0.0000
    163 C         170.1893   77.2081   69.8596 C.3      27        0    0.0000
    164 C         169.7438   76.8872   71.2905 C.3      27        0    0.0000
    165 H         171.2837   77.1778   69.7906 H        27        0    0.0000
    166 H         169.8848   78.2271   69.5904 H        27        0    0.0000
    167 H         168.8873   77.5144   71.5674 H        27        0    0.0000
    168 H         169.4053   75.8456   71.3544 H        27        0    0.0000
    169 C         170.8919   77.1104   72.3343 C.3      28        0    0.0000
    170 C         170.4390   76.8141   73.7682 C.3      28        0    0.0000
    171 H         171.7414   76.4692   72.0681 H        28        0    0.0000
    172 H         171.2432   78.1468   72.2573 H        28        0    0.0000
    173 H         169.6118   77.4790   74.0464 H        28        0    0.0000
    174 H         170.0557   75.7885   73.8373 H        28        0    0.0000
    175 C         171.6001   76.9905   74.8065 C.3      29        0    0.0000
    176 C         171.1841   76.5697   76.2203 C.3      29        0    0.0000
    177 H         172.4627   76.3985   74.4763 H        29        0    0.0000
    178 H         171.9193   78.0401   74.8050 H        29        0    0.0000
    179 H         170.8795   77.4497   76.8004 H        29        0    0.0000
    180 H         170.3120   75.9057   76.1738 H        29        0    0.0000
    181 C         172.3384   75.8350   76.9854 C.3      30        0    0.0000
    182 C         171.8071   74.8001   77.9832 C.3      30        0    0.0000
    183 H         172.9947   75.3490   76.2529 H        30        0    0.0000
    184 H         172.9482   76.5826   77.5076 H        30        0    0.0000
    185 H         171.3912   75.3054   78.8637 H        30        0    0.0000
    186 H         170.9870   74.2284   77.5314 H        30        0    0.0000
    187 C         172.9205   73.8014   78.4528 C.3      31        0    0.0000
    188 C         172.4097   72.3587   78.5347 C.3      31        0    0.0000
    189 H         173.7663   73.8620   77.7567 H        31        0    0.0000
    190 H         173.2948   74.1242   79.4322 H        31        0    0.0000
    191 H         171.9457   72.1789   79.5125 H        31        0    0.0000
    192 H         171.6304   72.1922   77.7808 H        31        0    0.0000
    193 C         173.5546   71.3099   78.3183 C.3      32        0    0.0000
    194 C         174.0685   70.7299   79.6406 C.3      32        0    0.0000
    195 H         173.1793   70.5045   77.6749 H        32        0    0.0000
    196 H         174.3765   71.7910   77.7738 H        32        0    0.0000
    197 H         173.8087   71.3983   80.4708 H        32        0    0.0000
    198 H         173.5801   69.7691   79.8450 H        32        0    0.0000
    199 C         175.6214   70.5155   79.6315 C.3      33        0    0.0000
    200 C         176.1376   69.9508   80.9596 C.3      33        0    0.0000
    201 H         175.8799   69.8375   78.8087 H        33        0    0.0000
    202 H         176.1095   71.4739   79.4152 H        33        0    0.0000
    203 H         175.8855   70.6325   81.7815 H        33        0    0.0000
    204 H         175.6440   68.9961   81.1797 H        33        0    0.0000
    205 C         177.6890   69.7265   80.9469 C.3      34        0    0.0000
    206 C         178.2311   69.3389   82.3271 C.3      34        0    0.0000
    207 H         177.9271   68.9439   80.2159 H        34        0    0.0000
    208 H         178.1762   70.6445   80.5956 H        34        0    0.0000
    209 H         177.6065   69.7796   83.1140 H        34        0    0.0000
    210 H         178.1822   68.2509   82.4585 H        34        0    0.0000
    211 C         179.7125   69.8071   82.5364 C.3      35        0    0.0000
    212 C         180.2320   69.4804   83.9409 C.3      35        0    0.0000
    213 H         180.3454   69.3265   81.7801 H        35        0    0.0000
    214 H         179.7708   70.8876   82.3556 H        35        0    0.0000
    215 H         180.3546   68.3961   84.0538 H        35        0    0.0000
    216 H         181.2233   69.9266   84.0885 H        35        0    0.0000
    217 C         179.2714   70.0001   85.0654 C.3      36        0    0.0000
    218 C         179.7150   69.5505   86.4618 C.3      36        0    0.0000
    219 H         179.2313   71.0954   85.0179 H        36        0    0.0000
    220 H         178.2565   69.6385   84.8585 H        36        0    0.0000
    221 H         179.5132   68.4804   86.5943 H        36        0    0.0000
    222 H         180.7983   69.6830   86.5732 H        36        0    0.0000
    223 C         178.9889   70.3463   87.6007 C.3      37        0    0.0000
    224 C         179.4262   69.8909   88.9973 C.3      37        0    0.0000
    225 H         179.1958   71.4160   87.4720 H        37        0    0.0000
    226 H         177.9053   70.2189   87.4857 H        37        0    0.0000
    227 H         179.3158   68.8033   89.0900 H        37        0    0.0000
    228 H         180.4895   70.1136   89.1498 H        37        0    0.0000
    229 C         178.5970   70.5817   90.1343 C.3      38        0    0.0000
    230 C         179.0450   70.1383   91.5313 C.3      38        0    0.0000
    231 H         178.6981   71.6696   90.0345 H        38        0    0.0000
    232 H         177.5349   70.3493   89.9884 H        38        0    0.0000
    233 H         178.5527   70.7513   92.2964 H        38        0    0.0000
    234 H         178.7378   69.1009   91.7132 H        38        0    0.0000
    235 C         180.5976   70.2459   91.7194 C.3      39        0    0.0000
    236 C         181.0548   69.7226   93.0855 C.3      39        0    0.0000
    237 H         181.0908   69.6835   90.9169 H        39        0    0.0000
    238 H         180.8965   71.2945   91.5990 H        39        0    0.0000
    239 H         181.6874   68.8357   92.9560 H        39        0    0.0000
    240 H         181.6701   70.4774   93.5907 H        39        0    0.0000
    241 C         179.8475   69.3510   94.0138 C.3      40        0    0.0000
    242 C         180.2536   69.2670   95.4893 C.3      40        0    0.0000
    243 H         179.0572   70.1006   93.8832 H        40        0    0.0000
    244 H         179.4296   68.3919   93.6835 H        40        0    0.0000
    245 H         180.7290   68.2998   95.6941 H        40        0    0.0000
    246 H         180.9984   70.0391   95.7189 H        40        0    0.0000
    247 C         179.0299   69.4428   96.4532 C.3      41        0    0.0000
    248 C         179.4374   69.3683   97.9288 C.3      41        0    0.0000
    249 H         178.5503   70.4070   96.2436 H        41        0    0.0000
    250 H         178.2881   68.6665   96.2281 H        41        0    0.0000
    251 H         178.5916   69.6515   98.5674 H        41        0    0.0000
    252 H         179.7014   68.3372   98.1945 H        41        0    0.0000
    253 C         180.6533   70.3017   98.2572 C.3      42        0    0.0000
    254 C         181.0310   70.2627   99.7421 C.3      42        0    0.0000
    255 H         181.5095   69.9963   97.6431 H        42        0    0.0000
    256 H         180.4022   71.3274   97.9597 H        42        0    0.0000
    257 H         182.0891   69.9956   99.8542 H        42        0    0.0000
    258 H         180.9084   71.2577  100.1877 H        42        0    0.0000
    259 C         180.1627   69.2371  100.5493 C.3      43        0    0.0000
    260 C         180.3625   69.3714  102.0629 C.3      43        0    0.0000
    261 H         179.1067   69.3900  100.2943 H        43        0    0.0000
    262 H         180.4215   68.2218  100.2243 H        43        0    0.0000
    263 H         181.2398   68.7936  102.3792 H        43        0    0.0000
    264 H         180.5634   70.4177  102.3245 H        43        0    0.0000
    265 C         179.1141   68.8788  102.8730 C.3      44        0    0.0000
    266 C         179.3246   68.9871  104.3873 C.3      44        0    0.0000
    267 H         178.2409   69.4703  102.5713 H        44        0    0.0000
    268 H         178.9009   67.8388  102.5963 H        44        0    0.0000
    269 H         178.3779   68.8093  104.9123 H        44        0    0.0000
    270 H         180.0233   68.2123  104.7264 H        44        0    0.0000
    271 C         179.8813   70.3900  104.8108 C.3      45        0    0.0000
    272 C         180.2198   70.4539  106.3042 C.3      45        0    0.0000
    273 H         180.7742   70.6113  104.2129 H        45        0    0.0000
    274 H         179.1370   71.1561  104.5607 H        45        0    0.0000
    275 H         181.3053   70.5352  106.4408 H        45        0    0.0000
    276 H         179.7778   71.3526  106.7520 H        45        0    0.0000
    277 C         179.7053   69.1953  107.0844 C.3      46        0    0.0000
    278 C         179.9849   69.2898  108.5884 C.3      46        0    0.0000
    279 H         178.6281   69.0860  106.9081 H        46        0    0.0000
    280 H         180.1850   68.3008  106.6681 H        46        0    0.0000
    281 H         180.9050   68.7456  108.8349 H        46        0    0.0000
    282 H         180.1510   70.3356  108.8751 H        46        0    0.0000
    283 C         178.8093   68.7107  109.4487 C.3      47        0    0.0000
    284 C         179.0780   68.8278  110.9531 C.3      47        0    0.0000
    285 H         177.8857   69.2426  109.1890 H        47        0    0.0000
    286 H         178.6551   67.6596  109.1748 H        47        0    0.0000
    287 H         178.1794   68.5513  111.5183 H        47        0    0.0000
    288 H         179.8659   68.1246  111.2503 H        47        0    0.0000
    289 C         179.5104   70.2762  111.3684 C.3      48        0    0.0000
    290 C         179.9776   70.3473  112.8264 C.3      48        0    0.0000
    291 H         180.3129   70.6111  110.6995 H        48        0    0.0000
    292 H         178.6644   70.9566  111.2108 H        48        0    0.0000
    293 H         181.0654   70.4836  112.8666 H        48        0    0.0000
    294 H         179.5324   71.2189  113.3220 H        48        0    0.0000
    295 C         179.5996   69.0585  113.6349 C.3      49        0    0.0000
    296 C         179.9373   69.1873  115.1243 C.3      49        0    0.0000
    297 H         178.5276   68.8631  113.5078 H        49        0    0.0000
    298 H         180.1297   68.2013  113.2017 H        49        0    0.0000
    299 H         180.9076   68.7192  115.3319 H        49        0    0.0000
    300 H         180.0330   70.2453  115.3982 H        49        0    0.0000
    301 C         178.8506   68.5248  116.0394 C.3      50        0    0.0000
    302 C         179.1471   68.7227  117.5300 C.3      50        0    0.0000
    303 H         177.8710   68.9517  115.7908 H        50        0    0.0000
    304 H         178.7962   67.4543  115.8055 H        50        0    0.0000
    305 H         178.3616   69.3334  117.9920 H        50        0    0.0000
    306 H         179.1388   67.7551  118.0469 H        50        0    0.0000
    307 C         180.5331   69.4136  117.7733 C.3      51        0    0.0000
    308 C         180.7966   69.6794  119.2596 C.3      51        0    0.0000
    309 H         181.3238   68.7757  117.3593 H        51        0    0.0000
    310 H         180.5621   70.3556  117.2118 H        51        0    0.0000
    311 H         181.7636   69.2521  119.5525 H        51        0    0.0000
    312 H         180.8608   70.7591  119.4430 H        51        0    0.0000
    313 C         179.6786   69.0765  120.1783 C.3      52        0    0.0000
    314 C         179.8661   69.4610  121.6500 C.3      52        0    0.0000
    315 H         178.7014   69.4237  119.8203 H        52        0    0.0000
    316 H         179.6836   67.9847  120.0712 H        52        0    0.0000
    317 H         179.4855   70.4749  121.8254 H        52        0    0.0000
    318 H         179.2818   68.7898  122.2916 H        52        0    0.0000
    319 C         181.3688   69.4018  122.0927 C.3      53        0    0.0000
    320 C         181.6553   70.3045  123.2977 C.3      53        0    0.0000
    321 H         181.6264   68.3625  122.3316 H        53        0    0.0000
    322 H         181.9992   69.6955  121.2443 H        53        0    0.0000
    323 H         181.3978   71.3438  123.0588 H        53        0    0.0000
    324 H         181.0249   70.0108  124.1461 H        53        0    0.0000
    325 H         182.7002   70.2634  123.6055 H        53        0    0.0000
    326 H         169.2798   87.8287  121.7450 H         0        0    0.0000
@<TRIPOS>BOND
     1     1     2      1
     2     1     3      1
     3     1     4      1
     4     1   326      H
     5     2     5      1
     6     2     6      1
     7     2     7      1
     8     7     8      1
     9     7     9      1
    10     7    10      1
    11     8    11      1
    12     8    12      1
    13     8    13      1
    14    13    14      1
    15    13    15      1
    16    13    16      1
    17    14    17      1
    18    14    18      1
    19    14    19      1
    20    19    20      1
    21    19    21      1
    22    19    22      1
    23    20    23      1
    24    20    24      1
    25    20    25      1
    26    25    26      1
    27    25    27      1
    28    25    28      1
    29    26    29      1
    30    26    30      1
    31    26    31      1
    32    31    32      1
    33    31    33      1
    34    31    34      1
    35    32    35      1
    36    32    36      1
    37    32    37      1
    38    37    38      1
    39    37    39      1
    40    37    40      1
    41    38    41      1
    42    38    42      1
    43    38    43      1
    44    43    44      1
    45    43    45      1
    46    43    46      1
    47    44    47      1
    48    44    48      1
    49    44    49      1
    50    49    50      1
    51    49    51      1
    52    49    52      1
    53    50    53      1
    54    50    54      1
    55    50    55      1
    56    55    56      1
    57    55    57      1
    58    55    58      1
    59    56    59      1
    60    56    60      1
    61    56    61      1
    62    61    62      1
    63    61    63      1
    64    61    64      1
    65    62    65      1
    66    62    66      1
    67    62    67      1
    68    67    68      1
    69    67    69      1
    70    67    70      1
    71    68    71      1
    72    68    72      1
    73    68    73      1
    74    73    74      1
    75    73    75      1
    76    73    76      1
    77    74    77      1
    78    74    78      1
    79    74    79      1
    80    79    80      1
    81    79    81      1
    82    79    82      1
    83    80    83      1
    84    80    84      1
    85    80    85      1
    86    85    86      1
    87    85    87      1
    88    85    88      1
    89    86    89      1
    90    86    90      1
    91    86    91      1
    92    91    92      1
    93    91    93      1
    94    91    94      1
    95    92    95      1
    96    92    96      1
    97    92    97      1
    98    97    98      1
    99    97    99      1
   100    97   100      1
   101    98   101      1
   102    98   102      1
   103    98   103      1
   104   103   104      1
   105   103   105      1
   106   103   106      1
   107   104   107      1
   108   104   108      1
   109   104   109      1
   110   109   110      1
   111   109   111      1
   112   109   112      1
   113   110   113      1
   114   110   114      1
   115   110   115      1
   116   115   116      1
   117   115   117      1
   118   115   118      1
   119   116   119      1
   120   116   120      1
   121   116   121      1
   122   121   122      1
   123   121   123      1
   124   121   124      1
   125   122   125      1
   126   122   126      1
   127   122   127      1
   128   127   128      1
   129   127   129      1
   130   127   130      1
   131   128   131      1
   132   128   132      1
   133   128   133      1
   134   133   134      1
   135   133   135      1
   136   133   136      1
   137   134   137      1
   138   134   138      1
   139   134   139      1
   140   139   140      1
   141   139   141      1
   142   139   142      1
   143   140   143      1
   144   140   144      1
   145   140   145      1
   146   145   146      1
   147   145   147      1
   148   145   148      1
   149   146   149      1
   150   146   150      1
   151   146   151      1
   152   151   152      1
   153   151   153      1
   154   151   154      1
   155   152   155      1
   156   152   156      1
   157   152   157      1
   158   157   158      1
   159   157   159      1
   160   157   160      1
   161   158   161      1
   162   158   162      1
   163   158   163      1
   164   163   164      1
   165   163   165      1
   166   163   166      1
   167   164   167      1
   168   164   168      1
   169   164   169      1
   170   169   170      1
   171   169   171      1
   172   169   172      1
   173   170   173      1
   174   170   174      1
   175   170   175      1
   176   175   176      1
   177   175   177      1
   178   175   178      1
   179   176   179      1
   180   176   180      1
   181   176   181      1
   182   181   182      1
   183   181   183      1
   184   181   184      1
   185   182   185      1
   186   182   186      1
   187   182   187      1
   188   187   188      1
   189   187   189      1
   190   187   190      1
   191   188   191      1
   192   188   192      1
   193   188   193      1
   194   193   194      1
   195   193   195      1
   196   193   196      1
   197   194   197      1
   198   194   198      1
   199   194   199      1
   200   199   200      1
   201   199   201      1
   202   199   202      1
   203   200   203      1
   204   200   204      1
   205   200   205      1
   206   205   206      1
   207   205   207      1
   208   205   208      1
   209   206   209      1
   210   206   210      1
   211   206   211      1
   212   211   212      1
   213   211   213      1
   214   211   214      1
   215   212   215      1
   216   212   216      1
   217   212   217      1
   218   217   218      1
   219   217   219      1
   220   217   220      1
   221   218   221      1
   222   218   222      1
   223   218   223      1
   224   223   224      1
   225   223   225      1
   226   223   226      1
   227   224   227      1
   228   224   228      1
   229   224   229      1
   230   229   230      1
   231   229   231      1
   232   229   232      1
   233   230   233      1
   234   230   234      1
   235   230   235      1
   236   235   236      1
   237   235   237      1
   238   235   238      1
   239   236   239      1
   240   236   240      1
   241   236   241      1
   242   241   242      1
   243   241   243      1
   244   241   244      1
   245   242   245      1
   246   242   246      1
   247   242   247      1
   248   247   248      1
   249   247   249      1
   250   247   250      1
   251   248   251      1
   252   248   252      1
   253   248   253      1
   254   253   254      1
   255   253   255      1
   256   253   256      1
   257   254   257      1
   258   254   258      1
   259   254   259      1
   260   259   260      1
   261   259   261      1
   262   259   262      1
   263   260   263      1
   264   260   264      1
   265   260   265      1
   266   265   266      1
   267   265   267      1
   268   265   268      1
   269   266   269      1
   270   266   270      1
   271   266   271      1
   272   271   272      1
   273   271   273      1
   274   271   274      1
   275   272   275      1
   276   272   276      1
   277   272   277      1
   278   277   278      1
   279   277   279      1
   280   277   280      1
   281   278   281      1
   282   278   282      1
   283   278   283      1
   284   283   284      1
   285   283   285      1
   286   283   286      1
   287   284   287      1
   288   284   288      1
   289   284   289      1
   290   289   290      1
   291   289   291      1
   292   289   292      1
   293   290   293      1
   294   290   294      1
   295   290   295      1
   296   295   296      1
   297   295   297      1
   298   295   298      1
   299   296   299      1
   300   296   300      1
   301   296   301      1
   302   301   302      1
   303   301   303      1
   304   301   304      1
   305   302   305      1
   306   302   306      1
   307   302   307      1
   308   307   308      1
   309   307   309      1
   310   307   310      1
   311   308   311      1
   312   308   312      1
   313   308   313      1
   314   313   314      1
   315   313   315      1
   316   313   316      1
   317   314   317      1
   318   314   318      1
   319   314   319      1
   320   319   320      1
   321   319   321      1
   322   319   322      1
   323   320   323      1
   324   320   324      1
   325   320   325      H
