###
### Created by PolyChef-cpp17 on Thu Feb 27 19:40:30 2025
###

@<TRIPOS>MOLECULE
NO_INFO
152 151 1 0 0
SMALL
USER_CHARGES


@<TRIPOS>ATOM
      1 C         109.2798   18.5487  120.6551 C.3       0        0    0.0000
      2 C         108.4513   17.3975  120.0742 C.3       0        0    0.0000
      3 H         108.8875   19.5102  120.3014 H         0        0    0.0000
      4 H         110.3162   18.4821  120.3014 H         0        0    0.0000
      5 H         108.4073   16.5672  120.7899 H         0        0    0.0000
      6 H         107.4175   17.7248  119.9075 H         0        0    0.0000
      7 C         109.0380   16.8673  118.7206 C.3       1        0    0.0000
      8 C         109.6355   17.9910  117.8667 C.3       1        0    0.0000
      9 H         109.8038   16.1126  118.9387 H         1        0    0.0000
     10 H         108.2412   16.3563  118.1659 H         1        0    0.0000
     11 H         108.9447   18.8424  117.8285 H         1        0    0.0000
     12 H         110.5629   18.3581  118.3236 H         1        0    0.0000
     13 C         109.9439   17.5244  116.4022 C.3       2        0    0.0000
     14 C         109.8877   18.6824  115.3997 C.3       2        0    0.0000
     15 H         110.9362   17.0569  116.3817 H         2        0    0.0000
     16 H         109.2234   16.7469  116.1197 H         2        0    0.0000
     17 H         108.9689   19.2634  115.5472 H         2        0    0.0000
     18 H         110.7258   19.3694  115.5711 H         2        0    0.0000
     19 C         109.9380   18.1849  113.9140 C.3       3        0    0.0000
     20 C         109.8347   19.3393  112.9111 C.3       3        0    0.0000
     21 H         110.8730   17.6330  113.7573 H         3        0    0.0000
     22 H         109.1203   17.4717  113.7521 H         3        0    0.0000
     23 H         108.9049   19.8980  113.0750 H         3        0    0.0000
     24 H         110.6588   20.0467  113.0657 H         3        0    0.0000
     25 C         109.8691   18.8404  111.4254 C.3       4        0    0.0000
     26 C         109.9432   19.9992  110.4251 C.3       4        0    0.0000
     27 H         110.7321   18.1756  111.2955 H         4        0    0.0000
     28 H         108.9740   18.2355  111.2347 H         4        0    0.0000
     29 H         109.0670   20.6497  110.5374 H         4        0    0.0000
     30 H         110.8244   20.6191  110.6321 H         4        0    0.0000
     31 C         110.0145   19.4993  108.9410 C.3       5        0    0.0000
     32 C         108.9954   20.2062  108.0404 C.3       5        0    0.0000
     33 H         111.0303   19.6639  108.5608 H         5        0    0.0000
     34 H         109.8435   18.4158  108.9242 H         5        0    0.0000
     35 H         108.0337   20.2975  108.5603 H         5        0    0.0000
     36 H         109.3324   21.2266  107.8198 H         5        0    0.0000
     37 C         108.7689   19.4455  106.6886 C.3       6        0    0.0000
     38 C         109.1822   20.2839  105.4740 C.3       6        0    0.0000
     39 H         109.3389   18.5084  106.7103 H         6        0    0.0000
     40 H         107.7101   19.1685  106.6118 H         6        0    0.0000
     41 H         108.3383   20.8984  105.1364 H         6        0    0.0000
     42 H         109.9857   20.9774  105.7514 H         6        0    0.0000
     43 C         109.6712   19.3963  104.2780 C.3       7        0    0.0000
     44 C         109.1424   19.8964  102.9292 C.3       7        0    0.0000
     45 H         110.7682   19.3853  104.2713 H         7        0    0.0000
     46 H         109.3469   18.3623  104.4493 H         7        0    0.0000
     47 H         108.0651   20.0926  102.9969 H         7        0    0.0000
     48 H         109.6202   20.8486  102.6675 H         7        0    0.0000
     49 C         109.3971   18.8687  101.7732 C.3       8        0    0.0000
     50 C         109.2363   19.5022  100.3869 C.3       8        0    0.0000
     51 H         110.4075   18.4559  101.8833 H         8        0    0.0000
     52 H         108.6998   18.0292  101.8863 H         8        0    0.0000
     53 H         108.2045   19.8482  100.2488 H         8        0    0.0000
     54 H         109.8794   20.3868  100.3007 H         8        0    0.0000
     55 C         109.5932   18.5036   99.2324 C.3       9        0    0.0000
     56 C         109.3867   19.1218   97.8452 C.3       9        0    0.0000
     57 H         110.6362   18.1846   99.3505 H         9        0    0.0000
     58 H         108.9745   17.6040   99.3391 H         9        0    0.0000
     59 H         108.3463   19.4506   97.7310 H         9        0    0.0000
     60 H         110.0135   20.0154   97.7345 H         9        0    0.0000
     61 C         109.7291   18.1183   96.6906 C.3      10        0    0.0000
     62 C         109.5218   18.7362   95.3034 C.3      10        0    0.0000
     63 H         110.7697   17.7899   96.8044 H        10        0    0.0000
     64 H         109.1028   17.2244   96.8016 H        10        0    0.0000
     65 H         108.4818   19.0667   95.1904 H        10        0    0.0000
     66 H         110.1499   19.6287   95.1914 H        10        0    0.0000
     67 C         109.8609   17.7316   94.1488 C.3      11        0    0.0000
     68 C         109.6534   18.3494   92.7616 C.3      11        0    0.0000
     69 H         110.9010   17.4012   94.2616 H        11        0    0.0000
     70 H         109.2330   16.8390   94.2608 H        11        0    0.0000
     71 H         108.6127   18.6774   92.6478 H        11        0    0.0000
     72 H         110.2794   19.2434   92.6505 H        11        0    0.0000
     73 C         109.9961   17.3460   91.6070 C.3      12        0    0.0000
     74 C         109.8001   17.9677   90.2199 C.3      12        0    0.0000
     75 H         111.0340   17.0112   91.7259 H        12        0    0.0000
     76 H         109.3638   16.4557   91.7129 H        12        0    0.0000
     77 H         108.7679   18.3222   90.1090 H        12        0    0.0000
     78 H         110.4486   18.8453   90.1060 H        12        0    0.0000
     79 C         110.1133   16.9548   89.0652 C.3      13        0    0.0000
     80 C         109.9199   17.5773   87.6780 C.3      13        0    0.0000
     81 H         111.1450   16.5988   89.1772 H        13        0    0.0000
     82 H         109.4636   16.0781   89.1780 H        13        0    0.0000
     83 H         108.8869   17.9290   87.5643 H        13        0    0.0000
     84 H         110.5661   18.4568   87.5670 H        13        0    0.0000
     85 C         110.2395   16.5664   86.5233 C.3      14        0    0.0000
     86 C         110.0412   17.1874   85.1362 C.3      14        0    0.0000
     87 H         111.2736   16.2176   86.6349 H        14        0    0.0000
     88 H         109.5958   15.6852   86.6365 H        14        0    0.0000
     89 H         109.0048   17.5283   85.0214 H        14        0    0.0000
     90 H         110.6784   18.0736   85.0262 H        14        0    0.0000
     91 C         110.3726   16.1803   83.9815 C.3      15        0    0.0000
     92 C         110.1778   16.8024   82.5944 C.3      15        0    0.0000
     93 H         111.4081   15.8372   84.0979 H        15        0    0.0000
     94 H         109.7335   15.2952   84.0900 H        15        0    0.0000
     95 H         109.1774   17.2462   82.5183 H        15        0    0.0000
     96 H         110.8964   17.6175   82.4435 H        15        0    0.0000
     97 C         110.3542   15.7536   81.4428 C.3      16        0    0.0000
     98 C         110.1925   16.3825   80.0545 C.3      16        0    0.0000
     99 H         111.3454   15.2921   81.5335 H        16        0    0.0000
    100 H         109.6193   14.9508   81.5800 H        16        0    0.0000
    101 H         111.0744   16.9878   79.8107 H        16        0    0.0000
    102 H         110.1283   15.5974   79.2910 H        16        0    0.0000
    103 C         108.9161   17.2874   79.9573 C.3      17        0    0.0000
    104 C         108.9412   18.1966   78.7237 C.3      17        0    0.0000
    105 H         108.0277   16.6442   79.9325 H        17        0    0.0000
    106 H         108.8414   17.8927   80.8692 H        17        0    0.0000
    107 H         109.8746   18.7726   78.6999 H        17        0    0.0000
    108 H         108.9215   17.5906   77.8094 H        17        0    0.0000
    109 C         107.7315   19.1932   78.6955 C.3      18        0    0.0000
    110 C         107.6077   19.9185   77.3509 C.3      18        0    0.0000
    111 H         106.8102   18.6373   78.9093 H        18        0    0.0000
    112 H         107.8549   19.9221   79.5061 H        18        0    0.0000
    113 H         108.4879   20.5511   77.1823 H        18        0    0.0000
    114 H         107.5818   19.1896   76.5314 H        18        0    0.0000
    115 C         106.3215   20.8114   77.2738 C.3      19        0    0.0000
    116 C         106.1607   21.4813   75.9047 C.3      19        0    0.0000
    117 H         105.4452   20.1889   77.4932 H        19        0    0.0000
    118 H         106.3720   21.5731   78.0617 H        19        0    0.0000
    119 H         107.0296   22.1166   75.6924 H        19        0    0.0000
    120 H         106.1265   20.7203   75.1153 H        19        0    0.0000
    121 C         104.8626   22.3560   75.8201 C.3      20        0    0.0000
    122 C         104.6984   23.0207   74.4488 C.3      20        0    0.0000
    123 H         103.9941   21.7218   76.0370 H        20        0    0.0000
    124 H         104.8990   23.1200   76.6065 H        20        0    0.0000
    125 H         105.5657   23.6569   74.2330 H        20        0    0.0000
    126 H         104.6645   22.2568   73.6621 H        20        0    0.0000
    127 C         103.3983   23.8924   74.3630 C.3      21        0    0.0000
    128 C         103.2392   24.5649   72.9950 C.3      21        0    0.0000
    129 H         102.5305   23.2546   74.5718 H        21        0    0.0000
    130 H         103.4289   24.6517   75.1542 H        21        0    0.0000
    131 H         104.1070   25.2028   72.7862 H        21        0    0.0000
    132 H         103.2088   23.8055   72.2038 H        21        0    0.0000
    133 C         101.9391   25.4365   72.9091 C.3      22        0    0.0000
    134 C         101.9733   26.4162   71.7309 C.3      22        0    0.0000
    135 H         101.0721   24.7704   72.8193 H        22        0    0.0000
    136 H         101.8185   25.9854   73.8513 H        22        0    0.0000
    137 H         102.8766   27.0365   71.7836 H        22        0    0.0000
    138 H         102.0250   25.8643   70.7841 H        22        0    0.0000
    139 C         100.7174   27.3539   71.7012 C.3      23        0    0.0000
    140 C         100.0318   27.3632   70.3305 C.3      23        0    0.0000
    141 H         100.0111   27.0234   72.4728 H        23        0    0.0000
    142 H         101.0284   28.3702   71.9732 H        23        0    0.0000
    143 H          99.6097   28.3554   70.1278 H        23        0    0.0000
    144 H         100.7672   27.1664   69.5406 H        23        0    0.0000
    145 C          98.8867   26.2972   70.2317 C.3      24        0    0.0000
    146 C          97.6689   26.8223   69.4632 C.3      24        0    0.0000
    147 H          99.2815   25.3984   69.7420 H        24        0    0.0000
    148 H          98.5919   25.9998   71.2457 H        24        0    0.0000
    149 H          97.2741   27.7212   69.9529 H        24        0    0.0000
    150 H          97.9637   27.1197   68.4492 H        24        0    0.0000
    151 H          96.8727   26.0811   69.3946 H        24        0    0.0000
    152 H         109.2798   18.5487  121.7450 H         0        0    0.0000
@<TRIPOS>BOND
     1     1     2      1
     2     1     3      1
     3     1     4      1
     4     1   152      H
     5     2     5      1
     6     2     6      1
     7     2     7      1
     8     7     8      1
     9     7     9      1
    10     7    10      1
    11     8    11      1
    12     8    12      1
    13     8    13      1
    14    13    14      1
    15    13    15      1
    16    13    16      1
    17    14    17      1
    18    14    18      1
    19    14    19      1
    20    19    20      1
    21    19    21      1
    22    19    22      1
    23    20    23      1
    24    20    24      1
    25    20    25      1
    26    25    26      1
    27    25    27      1
    28    25    28      1
    29    26    29      1
    30    26    30      1
    31    26    31      1
    32    31    32      1
    33    31    33      1
    34    31    34      1
    35    32    35      1
    36    32    36      1
    37    32    37      1
    38    37    38      1
    39    37    39      1
    40    37    40      1
    41    38    41      1
    42    38    42      1
    43    38    43      1
    44    43    44      1
    45    43    45      1
    46    43    46      1
    47    44    47      1
    48    44    48      1
    49    44    49      1
    50    49    50      1
    51    49    51      1
    52    49    52      1
    53    50    53      1
    54    50    54      1
    55    50    55      1
    56    55    56      1
    57    55    57      1
    58    55    58      1
    59    56    59      1
    60    56    60      1
    61    56    61      1
    62    61    62      1
    63    61    63      1
    64    61    64      1
    65    62    65      1
    66    62    66      1
    67    62    67      1
    68    67    68      1
    69    67    69      1
    70    67    70      1
    71    68    71      1
    72    68    72      1
    73    68    73      1
    74    73    74      1
    75    73    75      1
    76    73    76      1
    77    74    77      1
    78    74    78      1
    79    74    79      1
    80    79    80      1
    81    79    81      1
    82    79    82      1
    83    80    83      1
    84    80    84      1
    85    80    85      1
    86    85    86      1
    87    85    87      1
    88    85    88      1
    89    86    89      1
    90    86    90      1
    91    86    91      1
    92    91    92      1
    93    91    93      1
    94    91    94      1
    95    92    95      1
    96    92    96      1
    97    92    97      1
    98    97    98      1
    99    97    99      1
   100    97   100      1
   101    98   101      1
   102    98   102      1
   103    98   103      1
   104   103   104      1
   105   103   105      1
   106   103   106      1
   107   104   107      1
   108   104   108      1
   109   104   109      1
   110   109   110      1
   111   109   111      1
   112   109   112      1
   113   110   113      1
   114   110   114      1
   115   110   115      1
   116   115   116      1
   117   115   117      1
   118   115   118      1
   119   116   119      1
   120   116   120      1
   121   116   121      1
   122   121   122      1
   123   121   123      1
   124   121   124      1
   125   122   125      1
   126   122   126      1
   127   122   127      1
   128   127   128      1
   129   127   129      1
   130   127   130      1
   131   128   131      1
   132   128   132      1
   133   128   133      1
   134   133   134      1
   135   133   135      1
   136   133   136      1
   137   134   137      1
   138   134   138      1
   139   134   139      1
   140   139   140      1
   141   139   141      1
   142   139   142      1
   143   140   143      1
   144   140   144      1
   145   140   145      1
   146   145   146      1
   147   145   147      1
   148   145   148      1
   149   146   149      1
   150   146   150      1
   151   146   151      H
