###
### Created by PolyChef-cpp17 on Thu Feb 27 19:40:29 2025
###

@<TRIPOS>MOLECULE
NO_INFO
380 379 1 0 0
SMALL
USER_CHARGES


@<TRIPOS>ATOM
      1 C         119.2798  174.4287  120.6551 C.3       0        0    0.0000
      2 C         118.4513  173.2775  120.0742 C.3       0        0    0.0000
      3 H         118.8875  175.3902  120.3015 H         0        0    0.0000
      4 H         120.3162  174.3620  120.3014 H         0        0    0.0000
      5 H         118.4068  172.4475  120.7902 H         0        0    0.0000
      6 H         117.4177  173.6050  119.9069 H         0        0    0.0000
      7 C         119.0385  172.7467  118.7211 C.3       1        0    0.0000
      8 C         119.6370  173.8699  117.8673 C.3       1        0    0.0000
      9 H         119.8039  171.9917  118.9397 H         1        0    0.0000
     10 H         118.2418  172.2360  118.1660 H         1        0    0.0000
     11 H         118.9468  174.7217  117.8287 H         1        0    0.0000
     12 H         120.5645  174.2365  118.3244 H         1        0    0.0000
     13 C         119.9457  173.4030  116.4030 C.3       2        0    0.0000
     14 C         119.8907  174.5609  115.4003 C.3       2        0    0.0000
     15 H         120.9377  172.9348  116.3828 H         2        0    0.0000
     16 H         119.2248  172.6260  116.1202 H         2        0    0.0000
     17 H         118.9719  175.1421  115.5469 H         2        0    0.0000
     18 H         120.7287  175.2477  115.5724 H         2        0    0.0000
     19 C         119.9421  174.0633  113.9146 C.3       3        0    0.0000
     20 C         119.8231  175.2159  112.9115 C.3       3        0    0.0000
     21 H         120.8829  173.5218  113.7555 H         3        0    0.0000
     22 H         119.1320  173.3409  113.7555 H         3        0    0.0000
     23 H         118.8881  175.7650  113.0787 H         3        0    0.0000
     24 H         120.6403  175.9321  113.0627 H         3        0    0.0000
     25 C         119.8571  174.7166  111.4259 C.3       4        0    0.0000
     26 C         119.9524  175.8742  110.4260 C.3       4        0    0.0000
     27 H         120.7110  174.0394  111.3000 H         4        0    0.0000
     28 H         118.9542  174.1246  111.2311 H         4        0    0.0000
     29 H         119.0829  176.5348  110.5314 H         4        0    0.0000
     30 H         120.8390  176.4839  110.6399 H         4        0    0.0000
     31 C         120.0296  175.3732  108.9426 C.3       5        0    0.0000
     32 C         119.0234  176.0889  108.0347 C.3       5        0    0.0000
     33 H         121.0495  175.5283  108.5696 H         5        0    0.0000
     34 H         119.8489  174.2912  108.9250 H         5        0    0.0000
     35 H         118.0586  176.1884  108.5474 H         5        0    0.0000
     36 H         119.3708  177.1064  107.8168 H         5        0    0.0000
     37 C         118.8003  175.3304  106.6811 C.3       6        0    0.0000
     38 C         119.2288  176.1658  105.4697 C.3       6        0    0.0000
     39 H         119.3627  174.3888  106.7065 H         6        0    0.0000
     40 H         117.7400  175.0618  106.5968 H         6        0    0.0000
     41 H         118.3959  176.7959  105.1337 H         6        0    0.0000
     42 H         120.0440  176.8443  105.7500 H         6        0    0.0000
     43 C         119.7033  175.2741  104.2709 C.3       7        0    0.0000
     44 C         119.1893  175.7916  102.9229 C.3       7        0    0.0000
     45 H         120.7998  175.2404  104.2675 H         7        0    0.0000
     46 H         119.3570  174.2462  104.4360 H         7        0    0.0000
     47 H         118.1164  176.0111  102.9886 H         7        0    0.0000
     48 H         119.6885  176.7343  102.6667 H         7        0    0.0000
     49 C         119.4247  174.7637  101.7630 C.3       8        0    0.0000
     50 C         119.2840  175.4073  100.3791 C.3       8        0    0.0000
     51 H         120.4249  174.3272  101.8749 H         8        0    0.0000
     52 H         118.7079  173.9401  101.8694 H         8        0    0.0000
     53 H         118.2618  175.7805  100.2400 H         8        0    0.0000
     54 H         119.9501  176.2753  100.2985 H         8        0    0.0000
     55 C         119.6179  174.4049   99.2210 C.3       9        0    0.0000
     56 C         119.4255  175.0324   97.8360 C.3       9        0    0.0000
     57 H         120.6533  174.0617   99.3379 H         9        0    0.0000
     58 H         118.9789  173.5192   99.3247 H         9        0    0.0000
     59 H         118.3935  175.3874   97.7240 H         9        0    0.0000
     60 H         120.0742  175.9105   97.7275 H         9        0    0.0000
     61 C         119.7416  174.0244   96.6779 C.3      10        0    0.0000
     62 C         119.5527  174.6531   95.2929 C.3      10        0    0.0000
     63 H         120.7727  173.6674   96.7914 H        10        0    0.0000
     64 H         119.0911  173.1476   96.7849 H        10        0    0.0000
     65 H         118.5230  175.0148   95.1813 H        10        0    0.0000
     66 H         120.2071  175.5269   95.1840 H        10        0    0.0000
     67 C         119.8616  173.6429   94.1347 C.3      11        0    0.0000
     68 C         119.6734  174.2718   92.7498 C.3      11        0    0.0000
     69 H         120.8911  173.2807   94.2466 H        11        0    0.0000
     70 H         119.2068  172.7694   94.2433 H        11        0    0.0000
     71 H         118.6436  174.6329   92.6374 H        11        0    0.0000
     72 H         120.3273  175.1460   92.6416 H        11        0    0.0000
     73 C         119.9841  173.2621   91.5916 C.3      12        0    0.0000
     74 C         119.7867  173.8882   90.2066 C.3      12        0    0.0000
     75 H         121.0162  172.9063   91.7000 H        12        0    0.0000
     76 H         119.3350  172.3848   91.7037 H        12        0    0.0000
     77 H         118.7540  174.2421   90.0975 H        12        0    0.0000
     78 H         120.4342  174.7667   90.0952 H        12        0    0.0000
     79 C         120.1002  172.8793   89.0484 C.3      13        0    0.0000
     80 C         119.9047  173.5060   87.6635 C.3      13        0    0.0000
     81 H         121.1323  172.5244   89.1584 H        13        0    0.0000
     82 H         119.4516  172.0014   89.1590 H        13        0    0.0000
     83 H         118.8733  173.8635   87.5545 H        13        0    0.0000
     84 H         120.5553  174.3823   87.5519 H        13        0    0.0000
     85 C         120.2144  172.4960   86.5052 C.3      14        0    0.0000
     86 C         120.0263  173.1249   85.1203 C.3      14        0    0.0000
     87 H         121.2440  172.1343   86.6174 H        14        0    0.0000
     88 H         119.5600  171.6222   86.6136 H        14        0    0.0000
     89 H         118.9925  173.4727   85.0024 H        14        0    0.0000
     90 H         120.6693  174.0078   85.0176 H        14        0    0.0000
     91 C         120.3569  172.1214   83.9622 C.3      15        0    0.0000
     92 C         120.1656  172.7494   82.5772 C.3      15        0    0.0000
     93 H         121.3914  171.7754   84.0787 H        15        0    0.0000
     94 H         119.7154  171.2376   84.0664 H        15        0    0.0000
     95 H         119.1398  173.1237   82.4724 H        15        0    0.0000
     96 H         120.8301  173.6146   82.4615 H        15        0    0.0000
     97 C         120.4533  171.7328   81.4191 C.3      16        0    0.0000
     98 C         120.2550  172.3586   80.0342 C.3      16        0    0.0000
     99 H         121.4809  171.3624   81.5209 H        16        0    0.0000
    100 H         119.7925  170.8651   81.5379 H        16        0    0.0000
    101 H         119.2261  172.7248   79.9307 H        16        0    0.0000
    102 H         120.9125  173.2291   79.9172 H        16        0    0.0000
    103 C         120.5492  171.3439   78.8761 C.3      17        0    0.0000
    104 C         119.4341  171.3233   77.8248 C.3      17        0    0.0000
    105 H         121.5041  171.6105   78.4064 H        17        0    0.0000
    106 H         120.6785  170.3433   79.3070 H        17        0    0.0000
    107 H         118.4718  171.5662   78.2923 H        17        0    0.0000
    108 H         119.6187  172.0932   77.0654 H        17        0    0.0000
    109 C         119.3134  169.9313   77.1140 C.3      18        0    0.0000
    110 C         117.8546  169.5176   76.8909 C.3      18        0    0.0000
    111 H         119.8423  169.9774   76.1540 H        18        0    0.0000
    112 H         119.8292  169.1778   77.7221 H        18        0    0.0000
    113 H         117.2061  170.0164   77.6217 H        18        0    0.0000
    114 H         117.5189  169.8427   75.8983 H        18        0    0.0000
    115 C         117.6516  167.9677   77.0103 C.3      19        0    0.0000
    116 C         117.0038  167.3685   75.7573 C.3      19        0    0.0000
    117 H         118.6255  167.4966   77.1922 H        19        0    0.0000
    118 H         117.0314  167.7591   77.8909 H        19        0    0.0000
    119 H         115.9356  167.6172   75.7305 H        19        0    0.0000
    120 H         117.4517  167.8058   74.8564 H        19        0    0.0000
    121 C         117.1614  165.8100   75.6944 C.3      20        0    0.0000
    122 C         115.8097  165.0923   75.6131 C.3      20        0    0.0000
    123 H         117.7774  165.5518   74.8241 H        20        0    0.0000
    124 H         117.7129  165.4743   76.5814 H        20        0    0.0000
    125 H         115.0706  165.6104   76.2366 H        20        0    0.0000
    126 H         115.4296  165.1212   74.5844 H        20        0    0.0000
    127 C         115.9020  163.5973   76.0759 C.3      21        0    0.0000
    128 C         115.6930  162.6165   74.9168 C.3      21        0    0.0000
    129 H         116.8829  163.4302   76.5379 H        21        0    0.0000
    130 H         115.1519  163.4219   76.8569 H        21        0    0.0000
    131 H         114.6288  162.3680   74.8216 H        21        0    0.0000
    132 H         115.9935  163.0831   73.9704 H        21        0    0.0000
    133 C         116.5066  161.2901   75.1069 C.3      22        0    0.0000
    134 C         115.5960  160.0662   75.2543 C.3      22        0    0.0000
    135 H         117.1760  161.1597   74.2476 H        22        0    0.0000
    136 H         117.1466  161.3916   75.9922 H        22        0    0.0000
    137 H         114.6789  160.3419   75.7894 H        22        0    0.0000
    138 H         115.2873  159.7057   74.2652 H        22        0    0.0000
    139 C         116.2966  158.8936   76.0234 C.3      23        0    0.0000
    140 C         116.4322  157.6331   75.1620 C.3      23        0    0.0000
    141 H         117.2864  159.2303   76.3558 H        23        0    0.0000
    142 H         115.7193  158.6699   76.9291 H        23        0    0.0000
    143 H         115.4785  157.0915   75.1351 H        23        0    0.0000
    144 H         116.6674  157.9087   74.1265 H        23        0    0.0000
    145 C         117.5469  156.6674   75.6935 C.3      24        0    0.0000
    146 C         117.3789  155.2391   75.1638 C.3      24        0    0.0000
    147 H         118.5271  157.0641   75.4015 H        24        0    0.0000
    148 H         117.5211  156.6674   76.7903 H        24        0    0.0000
    149 H         116.3576  154.8857   75.3521 H        24        0    0.0000
    150 H         117.5228  155.2218   74.0764 H        24        0    0.0000
    151 C         118.3894  154.2383   75.8231 C.3      25        0    0.0000
    152 C         118.3000  152.8355   75.2120 C.3      25        0    0.0000
    153 H         119.4059  154.6347   75.7078 H        25        0    0.0000
    154 H         118.1895  154.1925   76.9008 H        25        0    0.0000
    155 H         117.6609  152.1950   75.8324 H        25        0    0.0000
    156 H         117.8295  152.8857   74.2222 H        25        0    0.0000
    157 C         119.7068  152.1589   75.0691 C.3      26        0    0.0000
    158 C         119.6462  150.8577   74.2614 C.3      26        0    0.0000
    159 H         120.3930  152.8678   74.5893 H        26        0    0.0000
    160 H         120.1077  151.9614   76.0710 H        26        0    0.0000
    161 H         119.4239  150.0130   74.9252 H        26        0    0.0000
    162 H         118.8301  150.9068   73.5299 H        26        0    0.0000
    163 C         120.9872  150.5658   73.5037 C.3      27        0    0.0000
    164 C         120.9286  149.2614   72.7011 C.3      27        0    0.0000
    165 H         121.2071  151.4084   72.8366 H        27        0    0.0000
    166 H         121.8039  150.5213   74.2348 H        27        0    0.0000
    167 H         120.0589  148.6684   73.0099 H        27        0    0.0000
    168 H         120.7971  149.4817   71.6344 H        27        0    0.0000
    169 C         122.2217  148.3939   72.8822 C.3      28        0    0.0000
    170 C         122.0433  147.2992   73.9399 C.3      28        0    0.0000
    171 H         122.4842  147.9445   71.9164 H        28        0    0.0000
    172 H         123.0537  149.0529   73.1595 H        28        0    0.0000
    173 H         122.3515  147.6733   74.9241 H        28        0    0.0000
    174 H         120.9840  147.0265   74.0242 H        28        0    0.0000
    175 C         122.8718  146.0107   73.6070 C.3      29        0    0.0000
    176 C         124.2799  146.0534   74.2107 C.3      29        0    0.0000
    177 H         122.3284  145.1343   73.9815 H        29        0    0.0000
    178 H         122.9330  145.9014   72.5171 H        29        0    0.0000
    179 H         124.2834  146.6766   75.1135 H        29        0    0.0000
    180 H         124.5867  145.0470   74.5215 H        29        0    0.0000
    181 C         125.3412  146.6167   73.2038 C.3      30        0    0.0000
    182 C         126.5478  145.6844   73.0497 C.3      30        0    0.0000
    183 H         124.8584  146.7711   72.2309 H        30        0    0.0000
    184 H         125.6703  147.6035   73.5523 H        30        0    0.0000
    185 H         127.4758  146.2694   73.0359 H        30        0    0.0000
    186 H         126.6139  145.0090   73.9117 H        30        0    0.0000
    187 C         126.4721  144.8262   71.7400 C.3      31        0    0.0000
    188 C         127.6938  143.9164   71.5703 C.3      31        0    0.0000
    189 H         125.5553  144.2242   71.7643 H        31        0    0.0000
    190 H         126.3832  145.5010   70.8797 H        31        0    0.0000
    191 H         128.5912  144.5213   71.3904 H        31        0    0.0000
    192 H         127.8740  143.3524   72.4938 H        31        0    0.0000
    193 C         127.5209  142.9044   70.3857 C.3      32        0    0.0000
    194 C         128.4200  141.6725   70.5382 C.3      32        0    0.0000
    195 H         126.4688  142.5980   70.3330 H        32        0    0.0000
    196 H         127.7463  143.4203   69.4441 H        32        0    0.0000
    197 H         129.4731  141.9595   70.4278 H        32        0    0.0000
    198 H         128.3123  141.2506   71.5451 H        32        0    0.0000
    199 C         128.0865  140.5597   69.4856 C.3      33        0    0.0000
    200 C         128.9345  139.2986   69.6852 C.3      33        0    0.0000
    201 H         127.0204  140.3116   69.5591 H        33        0    0.0000
    202 H         128.2470  140.9654   68.4791 H        33        0    0.0000
    203 H         129.9996  139.5420   69.5863 H        33        0    0.0000
    204 H         128.7937  138.9074   70.7004 H        33        0    0.0000
    205 C         128.5757  138.1724   68.6555 C.3      34        0    0.0000
    206 C         129.4290  136.9142   68.8501 C.3      34        0    0.0000
    207 H         127.5119  137.9251   68.7583 H        34        0    0.0000
    208 H         128.7111  138.5654   67.6402 H        34        0    0.0000
    209 H         130.4941  137.1673   68.7795 H        34        0    0.0000
    210 H         129.2688  136.5027   69.8544 H        34        0    0.0000
    211 C         129.1020  135.8050   67.7916 C.3      35        0    0.0000
    212 C         129.9703  134.5551   67.9729 C.3      35        0    0.0000
    213 H         128.0404  135.5406   67.8730 H        35        0    0.0000
    214 H         129.2469  136.2213   66.7870 H        35        0    0.0000
    215 H         131.0126  134.7806   67.7153 H        35        0    0.0000
    216 H         129.9661  134.2435   69.0247 H        35        0    0.0000
    217 C         129.4792  133.3572   67.0890 C.3      36        0    0.0000
    218 C         130.3300  132.0986   67.2917 C.3      36        0    0.0000
    219 H         128.4305  133.1454   67.3316 H        36        0    0.0000
    220 H         129.5034  133.6620   66.0354 H        36        0    0.0000
    221 H         129.8720  131.2474   66.7729 H        36        0    0.0000
    222 H         131.3233  132.2406   66.8481 H        36        0    0.0000
    223 C         130.5007  131.7346   68.8069 C.3      37        0    0.0000
    224 C         131.4700  130.5662   69.0179 C.3      37        0    0.0000
    225 H         130.8573  132.6212   69.3456 H        37        0    0.0000
    226 H         129.5167  131.4870   69.2241 H        37        0    0.0000
    227 H         131.2885  129.7867   68.2677 H        37        0    0.0000
    228 H         132.5038  130.9050   68.8765 H        37        0    0.0000
    229 C         131.3363  129.9339   70.4461 C.3      38        0    0.0000
    230 C         132.3459  128.8043   70.6781 C.3      38        0    0.0000
    231 H         131.4749  130.7223   71.1963 H        38        0    0.0000
    232 H         130.3139  129.5562   70.5713 H        38        0    0.0000
    233 H         132.1405  127.9702   69.9957 H        38        0    0.0000
    234 H         133.3606  129.1543   70.4513 H        38        0    0.0000
    235 C         132.3129  128.2713   72.1519 C.3      39        0    0.0000
    236 C         133.3125  127.1322   72.3802 C.3      39        0    0.0000
    237 H         132.5286  129.1033   72.8337 H        39        0    0.0000
    238 H         131.2957  127.9310   72.3822 H        39        0    0.0000
    239 H         133.0912  126.2965   71.7047 H        39        0    0.0000
    240 H         134.3286  127.4698   72.1413 H        39        0    0.0000
    241 C         133.2885  126.6078   73.8573 C.3      40        0    0.0000
    242 C         133.1913  125.0799   73.9298 C.3      40        0    0.0000
    243 H         134.1958  126.9517   74.3694 H        40        0    0.0000
    244 H         132.4392  127.0640   74.3808 H        40        0    0.0000
    245 H         132.6701  124.6938   73.0450 H        40        0    0.0000
    246 H         134.1955  124.6383   73.9215 H        40        0    0.0000
    247 C         132.4357  124.5929   75.2140 C.3      41        0    0.0000
    248 C         133.3643  123.8686   76.1948 C.3      41        0    0.0000
    249 H         131.9746  125.4600   75.7031 H        41        0    0.0000
    250 H         131.6162  123.9291   74.9118 H        41        0    0.0000
    251 H         133.4058  122.7992   75.9535 H        41        0    0.0000
    252 H         134.3872  124.2532   76.0982 H        41        0    0.0000
    253 C         132.9011  124.0331   77.6833 C.3      42        0    0.0000
    254 C         132.3075  122.7400   78.2532 C.3      42        0    0.0000
    255 H         133.7596  124.3513   78.2877 H        42        0    0.0000
    256 H         132.1616  124.8417   77.7362 H        42        0    0.0000
    257 H         131.9918  122.0791   77.4365 H        42        0    0.0000
    258 H         133.0705  122.1949   78.8226 H        42        0    0.0000
    259 C         131.0782  123.0118   79.1873 C.3      43        0    0.0000
    260 C         130.5658  121.7334   79.8597 C.3      43        0    0.0000
    261 H         131.3680  123.7470   79.9483 H        43        0    0.0000
    262 H         130.2780  123.4714   78.5939 H        43        0    0.0000
    263 H         129.7185  121.3250   79.2951 H        43        0    0.0000
    264 H         131.3487  120.9650   79.8527 H        43        0    0.0000
    265 C         130.1141  121.9810   81.3403 C.3      44        0    0.0000
    266 C         130.0620  120.6846   82.1562 C.3      44        0    0.0000
    267 H         130.8072  122.6918   81.8073 H        44        0    0.0000
    268 H         129.1277  122.4611   81.3335 H        44        0    0.0000
    269 H         129.1870  120.0910   81.8637 H        44        0    0.0000
    270 H         130.9453  120.0700   81.9427 H        44        0    0.0000
    271 C         129.9959  120.9558   83.6988 C.3      45        0    0.0000
    272 C         130.1262  119.6689   84.5209 C.3      45        0    0.0000
    273 H         130.7948  121.6573   83.9691 H        45        0    0.0000
    274 H         129.0467  121.4551   83.9297 H        45        0    0.0000
    275 H         129.3043  118.9835   84.2796 H        45        0    0.0000
    276 H         131.0566  119.1489   84.2608 H        45        0    0.0000
    277 C         130.1166  119.9459   86.0638 C.3      46        0    0.0000
    278 C         129.6095  118.7430   86.8668 C.3      46        0    0.0000
    279 H         131.1329  120.2093   86.3821 H        46        0    0.0000
    280 H         129.4874  120.8225   86.2617 H        46        0    0.0000
    281 H         128.6482  118.4003   86.4644 H        46        0    0.0000
    282 H         130.3091  117.9036   86.7691 H        46        0    0.0000
    283 C         129.4303  119.0770   88.3880 C.3      47        0    0.0000
    284 C         130.1785  118.0905   89.2913 C.3      47        0    0.0000
    285 H         129.7866  120.0985   88.5700 H        47        0    0.0000
    286 H         128.3598  119.0693   88.6280 H        47        0    0.0000
    287 H         129.5498  117.2146   89.4938 H        47        0    0.0000
    288 H         131.0777  117.7220   88.7822 H        47        0    0.0000
    289 C         130.5996  118.7367   90.6561 C.3      48        0    0.0000
    290 C         129.7546  118.2231   91.8271 C.3      48        0    0.0000
    291 H         131.6606  118.5234   90.8359 H        48        0    0.0000
    292 H         130.5067  119.8268   90.5748 H        48        0    0.0000
    293 H         128.7621  117.9208   91.4706 H        48        0    0.0000
    294 H         130.2187  117.3294   92.2624 H        48        0    0.0000
    295 C         129.5808  119.3010   92.9520 C.3      49        0    0.0000
    296 C         129.7413  118.7067   94.3557 C.3      49        0    0.0000
    297 H         130.3176  120.0983   92.7946 H        49        0    0.0000
    298 H         128.5907  119.7623   92.8498 H        49        0    0.0000
    299 H         128.8750  118.0794   94.5998 H        49        0    0.0000
    300 H         130.6224  118.0541   94.3894 H        49        0    0.0000
    301 C         129.8898  119.8134   95.4559 C.3      50        0    0.0000
    302 C         129.8534  119.2318   96.8734 C.3      50        0    0.0000
    303 H         130.8331  120.3493   95.2933 H        50        0    0.0000
    304 H         129.0845  120.5478   95.3298 H        50        0    0.0000
    305 H         128.9301  118.6579   97.0210 H        50        0    0.0000
    306 H         130.6857  118.5311   97.0140 H        50        0    0.0000
    307 C         129.9381  120.3444   97.9745 C.3      51        0    0.0000
    308 C         129.9022  119.7627   99.3920 C.3      51        0    0.0000
    309 H         130.8612  120.9185   97.8267 H        51        0    0.0000
    310 H         129.1056  121.0449   97.8342 H        51        0    0.0000
    311 H         128.9820  119.1836   99.5378 H        51        0    0.0000
    312 H         130.7383  119.0668   99.5344 H        51        0    0.0000
    313 C         129.9784  120.8760  100.4931 C.3      52        0    0.0000
    314 C         129.9342  120.2948  101.9107 C.3      52        0    0.0000
    315 H         130.9017  121.4512  100.3511 H        52        0    0.0000
    316 H         129.1459  121.5753  100.3471 H        52        0    0.0000
    317 H         129.0103  119.7208  102.0532 H        52        0    0.0000
    318 H         130.7659  119.5944  102.0562 H        52        0    0.0000
    319 C         130.0124  121.4079  103.0118 C.3      53        0    0.0000
    320 C         129.9689  120.8267  104.4293 C.3      53        0    0.0000
    321 H         130.9360  121.9824  102.8689 H        53        0    0.0000
    322 H         129.1803  122.1080  102.8666 H        53        0    0.0000
    323 H         129.0460  120.2510  104.5717 H        53        0    0.0000
    324 H         130.8019  120.1278  104.5750 H        53        0    0.0000
    325 C         130.0450  121.9400  105.5304 C.3      54        0    0.0000
    326 C         130.0076  121.3584  106.9479 C.3      54        0    0.0000
    327 H         130.9659  122.5184  105.3853 H        54        0    0.0000
    328 H         129.2096  122.6365  105.3873 H        54        0    0.0000
    329 H         129.0860  120.7813  107.0935 H        54        0    0.0000
    330 H         130.8420  120.6606  107.0904 H        54        0    0.0000
    331 C         130.0860  122.4715  108.0490 C.3      55        0    0.0000
    332 C         130.0464  121.8900  109.4665 C.3      55        0    0.0000
    333 H         131.0084  123.0475  107.9044 H        55        0    0.0000
    334 H         129.2525  123.1701  107.9056 H        55        0    0.0000
    335 H         129.1289  121.3053  109.6078 H        55        0    0.0000
    336 H         130.8859  121.1993  109.6134 H        55        0    0.0000
    337 C         130.1100  123.0040  110.5676 C.3      56        0    0.0000
    338 C         130.0729  122.4224  111.9852 C.3      56        0    0.0000
    339 H         131.0266  123.5899  110.4253 H        56        0    0.0000
    340 H         129.2695  123.6937  110.4219 H        56        0    0.0000
    341 H         131.0260  121.9302  112.2149 H        56        0    0.0000
    342 H         129.9496  123.2283  112.7193 H        56        0    0.0000
    343 C         128.9113  121.3865  112.1720 C.3      57        0    0.0000
    344 C         128.9379  120.7272  113.5553 C.3      57        0    0.0000
    345 H         127.9531  121.8980  112.0176 H        57        0    0.0000
    346 H         128.9900  120.6219  111.3893 H        57        0    0.0000
    347 H         127.9495  120.7999  114.0258 H        57        0    0.0000
    348 H         129.1625  119.6577  113.4581 H        57        0    0.0000
    349 C         129.9991  121.3820  114.5053 C.3      58        0    0.0000
    350 C         129.7647  121.0192  115.9758 C.3      58        0    0.0000
    351 H         131.0001  121.0592  114.1932 H        58        0    0.0000
    352 H         129.9649  122.4709  114.3764 H        58        0    0.0000
    353 H         128.6947  121.0765  116.2114 H        58        0    0.0000
    354 H         130.0731  119.9829  116.1614 H        58        0    0.0000
    355 C         130.5483  121.9623  116.9526 C.3      59        0    0.0000
    356 C         130.3000  121.6105  118.4236 C.3      59        0    0.0000
    357 H         131.6195  121.8952  116.7255 H        59        0    0.0000
    358 H         130.2494  122.9998  116.7583 H        59        0    0.0000
    359 H         130.7971  120.6650  118.6733 H        59        0    0.0000
    360 H         130.7386  122.3782  119.0731 H        59        0    0.0000
    361 C         128.7731  121.4812  118.7539 C.3      60        0    0.0000
    362 C         128.5281  120.9717  120.1785 C.3      60        0    0.0000
    363 H         128.2977  122.4605  118.6177 H        60        0    0.0000
    364 H         128.3102  120.8025  118.0269 H        60        0    0.0000
    365 H         127.7759  121.5957  120.6770 H        60        0    0.0000
    366 H         128.1227  119.9527  120.1490 H        60        0    0.0000
    367 C         129.8363  120.9703  121.0421 C.3      61        0    0.0000
    368 C         129.6272  120.3162  122.4123 C.3      61        0    0.0000
    369 H         130.6241  120.4430  120.4899 H        61        0    0.0000
    370 H         130.1783  122.0052  121.1676 H        61        0    0.0000
    371 H         130.4727  120.5467  123.0722 H        61        0    0.0000
    372 H         128.7310  120.7280  122.8929 H        61        0    0.0000
    373 C         129.4755  118.7592  122.3104 C.3      62        0    0.0000
    374 C         130.2765  118.0256  123.3918 C.3      62        0    0.0000
    375 H         128.4122  118.5015  122.3900 H        62        0    0.0000
    376 H         129.8042  118.4364  121.3148 H        62        0    0.0000
    377 H         131.3398  118.2833  123.3121 H        62        0    0.0000
    378 H         129.9478  118.3485  124.3874 H        62        0    0.0000
    379 H         130.1710  116.9430  123.3209 H        62        0    0.0000
    380 H         119.2798  174.4287  121.7450 H         0        0    0.0000
@<TRIPOS>BOND
     1     1     2      1
     2     1     3      1
     3     1     4      1
     4     1   380      H
     5     2     5      1
     6     2     6      1
     7     2     7      1
     8     7     8      1
     9     7     9      1
    10     7    10      1
    11     8    11      1
    12     8    12      1
    13     8    13      1
    14    13    14      1
    15    13    15      1
    16    13    16      1
    17    14    17      1
    18    14    18      1
    19    14    19      1
    20    19    20      1
    21    19    21      1
    22    19    22      1
    23    20    23      1
    24    20    24      1
    25    20    25      1
    26    25    26      1
    27    25    27      1
    28    25    28      1
    29    26    29      1
    30    26    30      1
    31    26    31      1
    32    31    32      1
    33    31    33      1
    34    31    34      1
    35    32    35      1
    36    32    36      1
    37    32    37      1
    38    37    38      1
    39    37    39      1
    40    37    40      1
    41    38    41      1
    42    38    42      1
    43    38    43      1
    44    43    44      1
    45    43    45      1
    46    43    46      1
    47    44    47      1
    48    44    48      1
    49    44    49      1
    50    49    50      1
    51    49    51      1
    52    49    52      1
    53    50    53      1
    54    50    54      1
    55    50    55      1
    56    55    56      1
    57    55    57      1
    58    55    58      1
    59    56    59      1
    60    56    60      1
    61    56    61      1
    62    61    62      1
    63    61    63      1
    64    61    64      1
    65    62    65      1
    66    62    66      1
    67    62    67      1
    68    67    68      1
    69    67    69      1
    70    67    70      1
    71    68    71      1
    72    68    72      1
    73    68    73      1
    74    73    74      1
    75    73    75      1
    76    73    76      1
    77    74    77      1
    78    74    78      1
    79    74    79      1
    80    79    80      1
    81    79    81      1
    82    79    82      1
    83    80    83      1
    84    80    84      1
    85    80    85      1
    86    85    86      1
    87    85    87      1
    88    85    88      1
    89    86    89      1
    90    86    90      1
    91    86    91      1
    92    91    92      1
    93    91    93      1
    94    91    94      1
    95    92    95      1
    96    92    96      1
    97    92    97      1
    98    97    98      1
    99    97    99      1
   100    97   100      1
   101    98   101      1
   102    98   102      1
   103    98   103      1
   104   103   104      1
   105   103   105      1
   106   103   106      1
   107   104   107      1
   108   104   108      1
   109   104   109      1
   110   109   110      1
   111   109   111      1
   112   109   112      1
   113   110   113      1
   114   110   114      1
   115   110   115      1
   116   115   116      1
   117   115   117      1
   118   115   118      1
   119   116   119      1
   120   116   120      1
   121   116   121      1
   122   121   122      1
   123   121   123      1
   124   121   124      1
   125   122   125      1
   126   122   126      1
   127   122   127      1
   128   127   128      1
   129   127   129      1
   130   127   130      1
   131   128   131      1
   132   128   132      1
   133   128   133      1
   134   133   134      1
   135   133   135      1
   136   133   136      1
   137   134   137      1
   138   134   138      1
   139   134   139      1
   140   139   140      1
   141   139   141      1
   142   139   142      1
   143   140   143      1
   144   140   144      1
   145   140   145      1
   146   145   146      1
   147   145   147      1
   148   145   148      1
   149   146   149      1
   150   146   150      1
   151   146   151      1
   152   151   152      1
   153   151   153      1
   154   151   154      1
   155   152   155      1
   156   152   156      1
   157   152   157      1
   158   157   158      1
   159   157   159      1
   160   157   160      1
   161   158   161      1
   162   158   162      1
   163   158   163      1
   164   163   164      1
   165   163   165      1
   166   163   166      1
   167   164   167      1
   168   164   168      1
   169   164   169      1
   170   169   170      1
   171   169   171      1
   172   169   172      1
   173   170   173      1
   174   170   174      1
   175   170   175      1
   176   175   176      1
   177   175   177      1
   178   175   178      1
   179   176   179      1
   180   176   180      1
   181   176   181      1
   182   181   182      1
   183   181   183      1
   184   181   184      1
   185   182   185      1
   186   182   186      1
   187   182   187      1
   188   187   188      1
   189   187   189      1
   190   187   190      1
   191   188   191      1
   192   188   192      1
   193   188   193      1
   194   193   194      1
   195   193   195      1
   196   193   196      1
   197   194   197      1
   198   194   198      1
   199   194   199      1
   200   199   200      1
   201   199   201      1
   202   199   202      1
   203   200   203      1
   204   200   204      1
   205   200   205      1
   206   205   206      1
   207   205   207      1
   208   205   208      1
   209   206   209      1
   210   206   210      1
   211   206   211      1
   212   211   212      1
   213   211   213      1
   214   211   214      1
   215   212   215      1
   216   212   216      1
   217   212   217      1
   218   217   218      1
   219   217   219      1
   220   217   220      1
   221   218   221      1
   222   218   222      1
   223   218   223      1
   224   223   224      1
   225   223   225      1
   226   223   226      1
   227   224   227      1
   228   224   228      1
   229   224   229      1
   230   229   230      1
   231   229   231      1
   232   229   232      1
   233   230   233      1
   234   230   234      1
   235   230   235      1
   236   235   236      1
   237   235   237      1
   238   235   238      1
   239   236   239      1
   240   236   240      1
   241   236   241      1
   242   241   242      1
   243   241   243      1
   244   241   244      1
   245   242   245      1
   246   242   246      1
   247   242   247      1
   248   247   248      1
   249   247   249      1
   250   247   250      1
   251   248   251      1
   252   248   252      1
   253   248   253      1
   254   253   254      1
   255   253   255      1
   256   253   256      1
   257   254   257      1
   258   254   258      1
   259   254   259      1
   260   259   260      1
   261   259   261      1
   262   259   262      1
   263   260   263      1
   264   260   264      1
   265   260   265      1
   266   265   266      1
   267   265   267      1
   268   265   268      1
   269   266   269      1
   270   266   270      1
   271   266   271      1
   272   271   272      1
   273   271   273      1
   274   271   274      1
   275   272   275      1
   276   272   276      1
   277   272   277      1
   278   277   278      1
   279   277   279      1
   280   277   280      1
   281   278   281      1
   282   278   282      1
   283   278   283      1
   284   283   284      1
   285   283   285      1
   286   283   286      1
   287   284   287      1
   288   284   288      1
   289   284   289      1
   290   289   290      1
   291   289   291      1
   292   289   292      1
   293   290   293      1
   294   290   294      1
   295   290   295      1
   296   295   296      1
   297   295   297      1
   298   295   298      1
   299   296   299      1
   300   296   300      1
   301   296   301      1
   302   301   302      1
   303   301   303      1
   304   301   304      1
   305   302   305      1
   306   302   306      1
   307   302   307      1
   308   307   308      1
   309   307   309      1
   310   307   310      1
   311   308   311      1
   312   308   312      1
   313   308   313      1
   314   313   314      1
   315   313   315      1
   316   313   316      1
   317   314   317      1
   318   314   318      1
   319   314   319      1
   320   319   320      1
   321   319   321      1
   322   319   322      1
   323   320   323      1
   324   320   324      1
   325   320   325      1
   326   325   326      1
   327   325   327      1
   328   325   328      1
   329   326   329      1
   330   326   330      1
   331   326   331      1
   332   331   332      1
   333   331   333      1
   334   331   334      1
   335   332   335      1
   336   332   336      1
   337   332   337      1
   338   337   338      1
   339   337   339      1
   340   337   340      1
   341   338   341      1
   342   338   342      1
   343   338   343      1
   344   343   344      1
   345   343   345      1
   346   343   346      1
   347   344   347      1
   348   344   348      1
   349   344   349      1
   350   349   350      1
   351   349   351      1
   352   349   352      1
   353   350   353      1
   354   350   354      1
   355   350   355      1
   356   355   356      1
   357   355   357      1
   358   355   358      1
   359   356   359      1
   360   356   360      1
   361   356   361      1
   362   361   362      1
   363   361   363      1
   364   361   364      1
   365   362   365      1
   366   362   366      1
   367   362   367      1
   368   367   368      1
   369   367   369      1
   370   367   370      1
   371   368   371      1
   372   368   372      1
   373   368   373      1
   374   373   374      1
   375   373   375      1
   376   373   376      1
   377   374   377      1
   378   374   378      1
   379   374   379      H
