###
### Created by PolyChef-cpp17 on Thu Feb 27 19:40:28 2025
###

@<TRIPOS>MOLECULE
NO_INFO
308 307 1 0 0
SMALL
USER_CHARGES


@<TRIPOS>ATOM
      1 C          39.2798  105.1487  -39.3449 C.3       0        0    0.0000
      2 C          37.8706  104.9882  -38.7641 C.3       0        0    0.0000
      3 H          39.9271  104.3366  -38.9913 H         0        0    0.0000
      4 H          39.7280  106.0855  -38.9913 H         0        0    0.0000
      5 H          37.3722  105.9641  -38.7111 H         0        0    0.0000
      6 H          37.2611  104.3586  -39.4242 H         0        0    0.0000
      7 C          37.8873  104.3509  -37.3320 C.3       1        0    0.0000
      8 C          39.1651  104.6941  -36.5584 C.3       1        0    0.0000
      9 H          37.0071  104.7012  -36.7787 H         1        0    0.0000
     10 H          37.7865  103.2627  -37.4280 H         1        0    0.0000
     11 H          40.0454  104.5181  -37.1890 H         1        0    0.0000
     12 H          39.1723  105.7597  -36.2977 H         1        0    0.0000
     13 C          39.3084  103.8514  -35.2442 C.3       2        0    0.0000
     14 C          40.2039  104.5393  -34.2079 C.3       2        0    0.0000
     15 H          38.3099  103.6797  -34.8237 H         2        0    0.0000
     16 H          39.7168  102.8656  -35.4991 H         2        0    0.0000
     17 H          41.2589  104.4212  -34.4849 H         2        0    0.0000
     18 H          40.0012  105.6173  -34.1920 H         2        0    0.0000
     19 C          39.9929  103.9641  -32.7650 C.3       3        0    0.0000
     20 C          40.6128  104.8592  -31.6864 C.3       3        0    0.0000
     21 H          38.9170  103.8477  -32.5846 H         3        0    0.0000
     22 H          40.4307  102.9593  -32.7174 H         3        0    0.0000
     23 H          41.7020  104.8990  -31.8109 H         3        0    0.0000
     24 H          40.2456  105.8874  -31.7942 H         3        0    0.0000
     25 C          40.2879  104.3559  -30.2378 C.3       4        0    0.0000
     26 C          40.8890  105.2635  -29.1590 C.3       4        0    0.0000
     27 H          39.1987  104.3005  -30.1186 H         4        0    0.0000
     28 H          40.6696  103.3336  -30.1247 H         4        0    0.0000
     29 H          41.9787  105.3152  -29.2753 H         4        0    0.0000
     30 H          40.5110  106.2869  -29.2749 H         4        0    0.0000
     31 C          40.5586  104.7639  -27.7103 C.3       5        0    0.0000
     32 C          41.1595  105.6718  -26.6316 C.3       5        0    0.0000
     33 H          39.4689  104.7120  -27.5942 H         5        0    0.0000
     34 H          40.9369  103.7407  -27.5943 H         5        0    0.0000
     35 H          42.2490  105.7245  -26.7484 H         5        0    0.0000
     36 H          40.7804  106.6948  -26.7470 H         5        0    0.0000
     37 C          40.8303  105.1713  -25.1829 C.3       6        0    0.0000
     38 C          41.4102  106.0927  -24.1042 C.3       6        0    0.0000
     39 H          39.7411  105.1013  -25.0720 H         6        0    0.0000
     40 H          41.2252  104.1550  -25.0616 H         6        0    0.0000
     41 H          42.4999  106.1594  -24.2126 H         6        0    0.0000
     42 H          41.0185  107.1100  -24.2280 H         6        0    0.0000
     43 C          41.0761  105.5954  -22.6556 C.3       7        0    0.0000
     44 C          41.8855  106.3367  -21.5859 C.3       7        0    0.0000
     45 H          40.0023  105.7292  -22.4747 H         7        0    0.0000
     46 H          41.2736  104.5179  -22.5973 H         7        0    0.0000
     47 H          42.9585  106.2452  -21.7955 H         7        0    0.0000
     48 H          41.6498  107.4078  -21.6108 H         7        0    0.0000
     49 C          41.6042  105.7908  -20.1435 C.3       8        0    0.0000
     50 C          41.2699  106.9117  -19.1532 C.3       8        0    0.0000
     51 H          40.7762  105.0728  -20.1925 H         8        0    0.0000
     52 H          42.4841  105.2339  -19.7983 H         8        0    0.0000
     53 H          42.1849  107.4433  -18.8638 H         8        0    0.0000
     54 H          40.6134  107.6507  -19.6291 H         8        0    0.0000
     55 C          40.5686  106.3718  -17.8593 C.3       9        0    0.0000
     56 C          41.4128  106.6036  -16.6013 C.3       9        0    0.0000
     57 H          39.5937  106.8637  -17.7540 H         9        0    0.0000
     58 H          40.3688  105.3006  -17.9862 H         9        0    0.0000
     59 H          42.4799  106.5373  -16.8469 H         9        0    0.0000
     60 H          41.2409  107.6156  -16.2141 H         9        0    0.0000
     61 C          41.0894  105.5680  -15.4697 C.3      10        0    0.0000
     62 C          41.1988  106.1836  -14.0704 C.3      10        0    0.0000
     63 H          40.0780  105.1740  -15.6294 H        10        0    0.0000
     64 H          41.7767  104.7179  -15.5615 H        10        0    0.0000
     65 H          42.2451  106.4258  -13.8467 H        10        0    0.0000
     66 H          40.6413  107.1276  -14.0301 H        10        0    0.0000
     67 C          40.6524  105.2262  -12.9558 C.3      11        0    0.0000
     68 C          40.9274  105.7599  -11.5456 C.3      11        0    0.0000
     69 H          39.5737  105.0912  -13.1032 H        11        0    0.0000
     70 H          41.1135  104.2386  -13.0808 H        11        0    0.0000
     71 H          42.0025  105.9328  -11.4119 H        11        0    0.0000
     72 H          40.4328  106.7293  -11.4072 H        11        0    0.0000
     73 C          40.4314  104.7758  -10.4307 C.3      12        0    0.0000
     74 C          40.7041  105.3106   -9.0206 C.3      12        0    0.0000
     75 H          39.3567  104.6014  -10.5656 H        12        0    0.0000
     76 H          40.9274  103.8069  -10.5681 H        12        0    0.0000
     77 H          41.7791  105.4823   -8.8848 H        12        0    0.0000
     78 H          40.2105  106.2808   -8.8842 H        12        0    0.0000
     79 C          40.2045  104.3283   -7.9057 C.3      13        0    0.0000
     80 C          40.4774  104.8631   -6.4955 C.3      13        0    0.0000
     81 H          39.1295  104.1568   -8.0414 H        13        0    0.0000
     82 H          40.6981  103.3581   -8.0421 H        13        0    0.0000
     83 H          41.5525  105.0343   -6.3597 H        13        0    0.0000
     84 H          39.9841  105.8335   -6.3592 H        13        0    0.0000
     85 C          39.9774  103.8810   -5.3806 C.3      14        0    0.0000
     86 C          40.2410  104.4205   -3.9705 C.3      14        0    0.0000
     87 H          38.9039  103.7038   -5.5210 H        14        0    0.0000
     88 H          40.4764  102.9129   -5.5124 H        14        0    0.0000
     89 H          41.3150  104.5930   -3.8284 H        14        0    0.0000
     90 H          39.7461  105.3909   -3.8404 H        14        0    0.0000
     91 C          39.7347  103.4416   -2.8556 C.3      15        0    0.0000
     92 C          39.9962  103.9821   -1.4455 C.3      15        0    0.0000
     93 H          38.6610  103.2677   -2.9987 H        15        0    0.0000
     94 H          40.2309  102.4717   -2.9847 H        15        0    0.0000
     95 H          41.0580  104.2322   -1.3294 H        15        0    0.0000
     96 H          39.4347  104.9115   -1.2888 H        15        0    0.0000
     97 C          39.5943  102.9550   -0.3315 C.3      16        0    0.0000
     98 C          39.8642  103.4920    1.0784 C.3      16        0    0.0000
     99 H          38.5309  102.7099   -0.4436 H        16        0    0.0000
    100 H          40.1510  102.0233   -0.4921 H        16        0    0.0000
    101 H          40.9155  103.7911    1.1721 H        16        0    0.0000
    102 H          39.2633  104.3918    1.2596 H        16        0    0.0000
    103 C          39.5386  102.4348    2.1892 C.3      17        0    0.0000
    104 C          39.8206  102.9674    3.5984 C.3      17        0    0.0000
    105 H          38.4848  102.1427    2.1013 H        17        0    0.0000
    106 H          40.1326  101.5315    2.0026 H        17        0    0.0000
    107 H          40.8066  103.4474    3.6288 H        17        0    0.0000
    108 H          39.0865  103.7385    3.8630 H        17        0    0.0000
    109 C          39.7764  101.8348    4.6814 C.3      18        0    0.0000
    110 C          40.0860  102.3625    6.0866 C.3      18        0    0.0000
    111 H          38.7835  101.3685    4.6650 H        18        0    0.0000
    112 H          40.4958  101.0538    4.4058 H        18        0    0.0000
    113 H          40.7598  103.2260    6.0242 H        18        0    0.0000
    114 H          39.1652  102.7155    6.5672 H        18        0    0.0000
    115 C          40.7459  101.2716    6.9988 C.3      19        0    0.0000
    116 C          41.0513  101.7980    8.4055 C.3      19        0    0.0000
    117 H          40.0736  100.4068    7.0586 H        19        0    0.0000
    118 H          41.6684  100.9210    6.5198 H        19        0    0.0000
    119 H          41.5268  102.7846    8.3429 H        19        0    0.0000
    120 H          40.1188  101.9327    8.9674 H        19        0    0.0000
    121 C          41.9909  100.8344    9.2093 C.3      20        0    0.0000
    122 C          42.2763  101.3484   10.6247 C.3      20        0    0.0000
    123 H          41.5237   99.8428    9.2563 H        20        0    0.0000
    124 H          42.9306  100.7140    8.6562 H        20        0    0.0000
    125 H          42.7889  102.3172   10.5768 H        20        0    0.0000
    126 H          41.3341  101.5166   11.1609 H        20        0    0.0000
    127 C          43.1577  100.3508   11.4526 C.3      21        0    0.0000
    128 C          43.4759  100.8825   12.8544 C.3      21        0    0.0000
    129 H          42.6321   99.3906   11.5248 H        21        0    0.0000
    130 H          44.0876  100.1603   10.9026 H        21        0    0.0000
    131 H          43.9352  101.8763   12.7845 H        21        0    0.0000
    132 H          42.5498  101.0033   13.4300 H        21        0    0.0000
    133 C          44.4418   99.9338   13.6446 C.3      22        0    0.0000
    134 C          45.5773  100.7014   14.3305 C.3      22        0    0.0000
    135 H          43.8598   99.3777   14.3899 H        22        0    0.0000
    136 H          44.8551   99.1919   12.9501 H        22        0    0.0000
    137 H          45.8568  101.5759   13.7298 H        22        0    0.0000
    138 H          45.2405  101.0818   15.3028 H        22        0    0.0000
    139 C          46.8490   99.8112   14.5491 C.3      23        0    0.0000
    140 C          48.1486  100.5817   14.2918 C.3      23        0    0.0000
    141 H          46.8378   99.4247   15.5758 H        23        0    0.0000
    142 H          46.7898   98.9407   13.8841 H        23        0    0.0000
    143 H          48.2994  100.7153   13.2134 H        23        0    0.0000
    144 H          48.0829  101.5863   14.7276 H        23        0    0.0000
    145 C          49.4003   99.8521   14.8904 C.3      24        0    0.0000
    146 C          50.6780  100.6884   14.7592 C.3      24        0    0.0000
    147 H          49.2060   99.6252   15.9460 H        24        0    0.0000
    148 H          49.5266   98.8896   14.3794 H        24        0    0.0000
    149 H          51.5128  100.1807   15.2582 H        24        0    0.0000
    150 H          50.9559  100.7873   13.7025 H        24        0    0.0000
    151 C          50.5165  102.1207   15.3755 C.3      25        0    0.0000
    152 C          51.4201  103.1526   14.6915 C.3      25        0    0.0000
    153 H          49.4661  102.4256   15.2909 H        25        0    0.0000
    154 H          50.7451  102.0722   16.4474 H        25        0    0.0000
    155 H          51.8775  103.8085   15.4426 H        25        0    0.0000
    156 H          52.2431  102.6463   14.1721 H        25        0    0.0000
    157 C          50.6379  104.0354   13.6589 C.3      26        0    0.0000
    158 C          51.4775  104.3593   12.4182 C.3      26        0    0.0000
    159 H          49.7214  103.5085   13.3658 H        26        0    0.0000
    160 H          50.3237  104.9630   14.1531 H        26        0    0.0000
    161 H          51.9382  105.3493   12.5238 H        26        0    0.0000
    162 H          52.2986  103.6384   12.3209 H        26        0    0.0000
    163 C          50.6261  104.3360   11.1021 C.3      27        0    0.0000
    164 C          51.5005  104.2546    9.8460 C.3      27        0    0.0000
    165 H          49.9407  103.4801   11.1394 H        27        0    0.0000
    166 H          50.0023  105.2378   11.0684 H        27        0    0.0000
    167 H          52.1045  105.1652    9.7485 H        27        0    0.0000
    168 H          52.2043  103.4173    9.9312 H        27        0    0.0000
    169 C          50.6509  104.0698    8.5416 C.3      28        0    0.0000
    170 C          51.5264  103.9663    7.2879 C.3      28        0    0.0000
    171 H          50.0349  103.1680    8.6457 H        28        0    0.0000
    172 H          49.9582  104.9153    8.4480 H        28        0    0.0000
    173 H          50.9123  103.6896    6.4220 H        28        0    0.0000
    174 H          51.9723  104.9422    7.0589 H        28        0    0.0000
    175 C          52.6749  102.9118    7.4506 C.3      29        0    0.0000
    176 C          53.5023  102.7520    6.1705 C.3      29        0    0.0000
    177 H          53.3223  103.2194    8.2811 H        29        0    0.0000
    178 H          52.2330  101.9489    7.7356 H        29        0    0.0000
    179 H          54.5680  102.8893    6.3919 H        29        0    0.0000
    180 H          53.3912  101.7346    5.7753 H        29        0    0.0000
    181 C          53.0813  103.7745    5.0593 C.3      30        0    0.0000
    182 C          53.7532  103.4795    3.7138 C.3      30        0    0.0000
    183 H          51.9901  103.7472    4.9489 H        30        0    0.0000
    184 H          53.3388  104.7868    5.3945 H        30        0    0.0000
    185 H          53.0686  102.9174    3.0666 H        30        0    0.0000
    186 H          53.9799  104.4180    3.1928 H        30        0    0.0000
    187 C          55.0794  102.6601    3.8790 C.3      31        0    0.0000
    188 C          55.8691  102.5629    2.5690 C.3      31        0    0.0000
    189 H          55.6938  103.1344    4.6543 H        31        0    0.0000
    190 H          54.8314  101.6558    4.2441 H        31        0    0.0000
    191 H          56.3281  101.5705    2.4793 H        31        0    0.0000
    192 H          55.1926  102.6757    1.7127 H        31        0    0.0000
    193 C          56.9938  103.6506    2.4711 C.3      32        0    0.0000
    194 C          57.8893  103.4512    1.2434 C.3      32        0    0.0000
    195 H          56.5250  104.6419    2.4379 H        32        0    0.0000
    196 H          57.5976  103.6182    3.3865 H        32        0    0.0000
    197 H          58.3036  102.4354    1.2410 H        32        0    0.0000
    198 H          57.2971  103.5522    0.3255 H        32        0    0.0000
    199 C          59.0719  104.4792    1.1975 C.3      33        0    0.0000
    200 C          59.9605  104.2876   -0.0365 C.3      33        0    0.0000
    201 H          58.6579  105.4952    1.2088 H        33        0    0.0000
    202 H          59.6692  104.3723    2.1115 H        33        0    0.0000
    203 H          60.6756  105.1156   -0.1174 H        33        0    0.0000
    204 H          60.5521  103.3693    0.0650 H        33        0    0.0000
    205 C          59.1274  104.2080   -1.3620 C.3      34        0    0.0000
    206 C          60.0165  104.0227   -2.5966 C.3      34        0    0.0000
    207 H          58.4156  103.3769   -1.2829 H        34        0    0.0000
    208 H          58.5323  105.1242   -1.4611 H        34        0    0.0000
    209 H          60.7937  104.7966   -2.6200 H        34        0    0.0000
    210 H          60.5348  103.0572   -2.5454 H        34        0    0.0000
    211 C          59.1989  104.0871   -3.9326 C.3      35        0    0.0000
    212 C          60.0903  103.9178   -5.1678 C.3      35        0    0.0000
    213 H          58.4293  103.3055   -3.9141 H        35        0    0.0000
    214 H          58.6713  105.0478   -3.9783 H        35        0    0.0000
    215 H          60.8898  104.6689   -5.1606 H        35        0    0.0000
    216 H          60.5800  102.9363   -5.1466 H        35        0    0.0000
    217 C          59.2837  104.0513   -6.5054 C.3      36        0    0.0000
    218 C          60.1765  103.8901   -7.7406 C.3      36        0    0.0000
    219 H          58.4879  103.2961   -6.5153 H        36        0    0.0000
    220 H          58.7891  105.0303   -6.5238 H        36        0    0.0000
    221 H          60.9752  104.6421   -7.7282 H        36        0    0.0000
    222 H          60.6672  102.9090   -7.7247 H        36        0    0.0000
    223 C          59.3711  104.0305   -9.0782 C.3      37        0    0.0000
    224 C          60.2646  103.8730  -10.3135 C.3      37        0    0.0000
    225 H          58.5741  103.2768   -9.0918 H        37        0    0.0000
    226 H          58.8782  105.0105   -9.0929 H        37        0    0.0000
    227 H          61.0627  104.6255  -10.2989 H        37        0    0.0000
    228 H          60.7560  102.8923  -10.2997 H        37        0    0.0000
    229 C          59.4596  104.0161  -11.6511 C.3      38        0    0.0000
    230 C          60.3528  103.8571  -12.8863 C.3      38        0    0.0000
    231 H          58.6608  103.2643  -11.6652 H        38        0    0.0000
    232 H          58.9691  104.9973  -11.6653 H        38        0    0.0000
    233 H          61.1524  104.6081  -12.8715 H        38        0    0.0000
    234 H          60.8423  102.8754  -12.8728 H        38        0    0.0000
    235 C          59.5482  104.0021  -14.2239 C.3      39        0    0.0000
    236 C          60.4410  103.8410  -15.4592 C.3      39        0    0.0000
    237 H          58.7476  103.2521  -14.2380 H        39        0    0.0000
    238 H          59.0599  104.9844  -14.2382 H        39        0    0.0000
    239 H          61.2408  104.5919  -15.4458 H        39        0    0.0000
    240 H          60.9304  102.8593  -15.4442 H        39        0    0.0000
    241 C          59.6361  103.9840  -16.7968 C.3      40        0    0.0000
    242 C          60.5293  103.8251  -18.0321 C.3      40        0    0.0000
    243 H          58.8373  103.2322  -16.8109 H        40        0    0.0000
    244 H          59.1455  104.9652  -16.8110 H        40        0    0.0000
    245 H          61.3292  104.5757  -18.0170 H        40        0    0.0000
    246 H          61.0184  102.8432  -18.0187 H        40        0    0.0000
    247 C          59.7248  103.9707  -19.3696 C.3      41        0    0.0000
    248 C          60.6174  103.8088  -20.6049 C.3      41        0    0.0000
    249 H          58.9236  103.2214  -19.3837 H        41        0    0.0000
    250 H          59.2373  104.9534  -19.3839 H        41        0    0.0000
    251 H          61.4196  104.5570  -20.5899 H        41        0    0.0000
    252 H          61.1036  102.8255  -20.5915 H        41        0    0.0000
    253 C          59.8134  103.9568  -21.9425 C.3      42        0    0.0000
    254 C          60.7053  103.7910  -23.1778 C.3      42        0    0.0000
    255 H          59.0093  103.2106  -21.9561 H        42        0    0.0000
    256 H          59.3297  104.9414  -21.9572 H        42        0    0.0000
    257 H          61.5089  104.5377  -23.1645 H        42        0    0.0000
    258 H          61.1896  102.8067  -23.1627 H        42        0    0.0000
    259 C          59.9010  103.9379  -24.5153 C.3      43        0    0.0000
    260 C          60.7935  103.7749  -25.7506 C.3      43        0    0.0000
    261 H          59.0987  103.1898  -24.5295 H        43        0    0.0000
    262 H          59.4150  104.9213  -24.5295 H        43        0    0.0000
    263 H          61.5965  104.5222  -25.7358 H        43        0    0.0000
    264 H          61.2785  102.7910  -25.7371 H        43        0    0.0000
    265 C          59.9895  103.9236  -27.0882 C.3      44        0    0.0000
    266 C          60.8813  103.7572  -28.3235 C.3      44        0    0.0000
    267 H          59.1849  103.1780  -27.1019 H        44        0    0.0000
    268 H          59.5066  104.9086  -27.1028 H        44        0    0.0000
    269 H          61.6855  104.5034  -28.3102 H        44        0    0.0000
    270 H          61.3649  102.7726  -28.3084 H        44        0    0.0000
    271 C          60.0772  103.9049  -29.6610 C.3      45        0    0.0000
    272 C          60.9697  103.7426  -30.8963 C.3      45        0    0.0000
    273 H          59.2749  103.1567  -29.6757 H        45        0    0.0000
    274 H          59.5911  104.8883  -29.6747 H        45        0    0.0000
    275 H          61.7727  104.4900  -30.8810 H        45        0    0.0000
    276 H          61.4548  102.7587  -30.8833 H        45        0    0.0000
    277 C          60.1659  103.8921  -32.2339 C.3      46        0    0.0000
    278 C          61.0572  103.7233  -33.4692 C.3      46        0    0.0000
    279 H          59.3599  103.1479  -32.2470 H        46        0    0.0000
    280 H          59.6848  104.8779  -32.2490 H        46        0    0.0000
    281 H          61.8627  104.4680  -33.4565 H        46        0    0.0000
    282 H          61.5391  102.7378  -33.4535 H        46        0    0.0000
    283 C          60.2531  103.8713  -34.8067 C.3      47        0    0.0000
    284 C          61.1454  103.7077  -36.0420 C.3      47        0    0.0000
    285 H          59.4501  103.1241  -34.8211 H        47        0    0.0000
    286 H          59.7681  104.8553  -34.8206 H        47        0    0.0000
    287 H          61.9494  104.4540  -36.0268 H        47        0    0.0000
    288 H          61.6292  102.7232  -36.0289 H        47        0    0.0000
    289 C          60.3418  103.8581  -37.3796 C.3      48        0    0.0000
    290 C          61.2332  103.6900  -38.6149 C.3      48        0    0.0000
    291 H          59.5357  103.1140  -37.3933 H        48        0    0.0000
    292 H          59.8607  104.8439  -37.3941 H        48        0    0.0000
    293 H          62.0385  104.4349  -38.6018 H        48        0    0.0000
    294 H          61.7153  102.7047  -38.5997 H        48        0    0.0000
    295 C          60.4292  103.8386  -39.9524 C.3      49        0    0.0000
    296 C          61.3258  103.6990  -41.1876 C.3      49        0    0.0000
    297 H          59.6371  103.0800  -39.9749 H        49        0    0.0000
    298 H          59.9301  104.8155  -39.9583 H        49        0    0.0000
    299 H          62.1481  104.4236  -41.1394 H        49        0    0.0000
    300 H          61.7846  102.7027  -41.2088 H        49        0    0.0000
    301 C          60.5355  103.9197  -42.5234 C.3      50        0    0.0000
    302 C          60.7741  102.7913  -43.5327 C.3      50        0    0.0000
    303 H          59.4658  103.9980  -42.2925 H        50        0    0.0000
    304 H          60.8354  104.8819  -42.9568 H        50        0    0.0000
    305 H          61.8437  102.7131  -43.7635 H        50        0    0.0000
    306 H          60.4741  101.8292  -43.0992 H        50        0    0.0000
    307 H          60.2245  102.9448  -44.4615 H        50        0    0.0000
    308 H          39.2798  105.1487  -40.4349 H         0        0    0.0000
@<TRIPOS>BOND
     1     1     2      1
     2     1     3      1
     3     1     4      1
     4     1   308      H
     5     2     5      1
     6     2     6      1
     7     2     7      1
     8     7     8      1
     9     7     9      1
    10     7    10      1
    11     8    11      1
    12     8    12      1
    13     8    13      1
    14    13    14      1
    15    13    15      1
    16    13    16      1
    17    14    17      1
    18    14    18      1
    19    14    19      1
    20    19    20      1
    21    19    21      1
    22    19    22      1
    23    20    23      1
    24    20    24      1
    25    20    25      1
    26    25    26      1
    27    25    27      1
    28    25    28      1
    29    26    29      1
    30    26    30      1
    31    26    31      1
    32    31    32      1
    33    31    33      1
    34    31    34      1
    35    32    35      1
    36    32    36      1
    37    32    37      1
    38    37    38      1
    39    37    39      1
    40    37    40      1
    41    38    41      1
    42    38    42      1
    43    38    43      1
    44    43    44      1
    45    43    45      1
    46    43    46      1
    47    44    47      1
    48    44    48      1
    49    44    49      1
    50    49    50      1
    51    49    51      1
    52    49    52      1
    53    50    53      1
    54    50    54      1
    55    50    55      1
    56    55    56      1
    57    55    57      1
    58    55    58      1
    59    56    59      1
    60    56    60      1
    61    56    61      1
    62    61    62      1
    63    61    63      1
    64    61    64      1
    65    62    65      1
    66    62    66      1
    67    62    67      1
    68    67    68      1
    69    67    69      1
    70    67    70      1
    71    68    71      1
    72    68    72      1
    73    68    73      1
    74    73    74      1
    75    73    75      1
    76    73    76      1
    77    74    77      1
    78    74    78      1
    79    74    79      1
    80    79    80      1
    81    79    81      1
    82    79    82      1
    83    80    83      1
    84    80    84      1
    85    80    85      1
    86    85    86      1
    87    85    87      1
    88    85    88      1
    89    86    89      1
    90    86    90      1
    91    86    91      1
    92    91    92      1
    93    91    93      1
    94    91    94      1
    95    92    95      1
    96    92    96      1
    97    92    97      1
    98    97    98      1
    99    97    99      1
   100    97   100      1
   101    98   101      1
   102    98   102      1
   103    98   103      1
   104   103   104      1
   105   103   105      1
   106   103   106      1
   107   104   107      1
   108   104   108      1
   109   104   109      1
   110   109   110      1
   111   109   111      1
   112   109   112      1
   113   110   113      1
   114   110   114      1
   115   110   115      1
   116   115   116      1
   117   115   117      1
   118   115   118      1
   119   116   119      1
   120   116   120      1
   121   116   121      1
   122   121   122      1
   123   121   123      1
   124   121   124      1
   125   122   125      1
   126   122   126      1
   127   122   127      1
   128   127   128      1
   129   127   129      1
   130   127   130      1
   131   128   131      1
   132   128   132      1
   133   128   133      1
   134   133   134      1
   135   133   135      1
   136   133   136      1
   137   134   137      1
   138   134   138      1
   139   134   139      1
   140   139   140      1
   141   139   141      1
   142   139   142      1
   143   140   143      1
   144   140   144      1
   145   140   145      1
   146   145   146      1
   147   145   147      1
   148   145   148      1
   149   146   149      1
   150   146   150      1
   151   146   151      1
   152   151   152      1
   153   151   153      1
   154   151   154      1
   155   152   155      1
   156   152   156      1
   157   152   157      1
   158   157   158      1
   159   157   159      1
   160   157   160      1
   161   158   161      1
   162   158   162      1
   163   158   163      1
   164   163   164      1
   165   163   165      1
   166   163   166      1
   167   164   167      1
   168   164   168      1
   169   164   169      1
   170   169   170      1
   171   169   171      1
   172   169   172      1
   173   170   173      1
   174   170   174      1
   175   170   175      1
   176   175   176      1
   177   175   177      1
   178   175   178      1
   179   176   179      1
   180   176   180      1
   181   176   181      1
   182   181   182      1
   183   181   183      1
   184   181   184      1
   185   182   185      1
   186   182   186      1
   187   182   187      1
   188   187   188      1
   189   187   189      1
   190   187   190      1
   191   188   191      1
   192   188   192      1
   193   188   193      1
   194   193   194      1
   195   193   195      1
   196   193   196      1
   197   194   197      1
   198   194   198      1
   199   194   199      1
   200   199   200      1
   201   199   201      1
   202   199   202      1
   203   200   203      1
   204   200   204      1
   205   200   205      1
   206   205   206      1
   207   205   207      1
   208   205   208      1
   209   206   209      1
   210   206   210      1
   211   206   211      1
   212   211   212      1
   213   211   213      1
   214   211   214      1
   215   212   215      1
   216   212   216      1
   217   212   217      1
   218   217   218      1
   219   217   219      1
   220   217   220      1
   221   218   221      1
   222   218   222      1
   223   218   223      1
   224   223   224      1
   225   223   225      1
   226   223   226      1
   227   224   227      1
   228   224   228      1
   229   224   229      1
   230   229   230      1
   231   229   231      1
   232   229   232      1
   233   230   233      1
   234   230   234      1
   235   230   235      1
   236   235   236      1
   237   235   237      1
   238   235   238      1
   239   236   239      1
   240   236   240      1
   241   236   241      1
   242   241   242      1
   243   241   243      1
   244   241   244      1
   245   242   245      1
   246   242   246      1
   247   242   247      1
   248   247   248      1
   249   247   249      1
   250   247   250      1
   251   248   251      1
   252   248   252      1
   253   248   253      1
   254   253   254      1
   255   253   255      1
   256   253   256      1
   257   254   257      1
   258   254   258      1
   259   254   259      1
   260   259   260      1
   261   259   261      1
   262   259   262      1
   263   260   263      1
   264   260   264      1
   265   260   265      1
   266   265   266      1
   267   265   267      1
   268   265   268      1
   269   266   269      1
   270   266   270      1
   271   266   271      1
   272   271   272      1
   273   271   273      1
   274   271   274      1
   275   272   275      1
   276   272   276      1
   277   272   277      1
   278   277   278      1
   279   277   279      1
   280   277   280      1
   281   278   281      1
   282   278   282      1
   283   278   283      1
   284   283   284      1
   285   283   285      1
   286   283   286      1
   287   284   287      1
   288   284   288      1
   289   284   289      1
   290   289   290      1
   291   289   291      1
   292   289   292      1
   293   290   293      1
   294   290   294      1
   295   290   295      1
   296   295   296      1
   297   295   297      1
   298   295   298      1
   299   296   299      1
   300   296   300      1
   301   296   301      1
   302   301   302      1
   303   301   303      1
   304   301   304      1
   305   302   305      1
   306   302   306      1
   307   302   307      H
