###
### Created by PolyChef-cpp17 on Thu Feb 27 19:40:30 2025
###

@<TRIPOS>MOLECULE
NO_INFO
140 139 1 0 0
SMALL
USER_CHARGES


@<TRIPOS>ATOM
      1 C          59.2798  139.7887  -39.3449 C.3       0        0    0.0000
      2 C          57.8706  139.6282  -38.7641 C.3       0        0    0.0000
      3 H          59.9271  138.9766  -38.9914 H         0        0    0.0000
      4 H          59.7280  140.7255  -38.9913 H         0        0    0.0000
      5 H          57.3722  140.6041  -38.7109 H         0        0    0.0000
      6 H          57.2610  138.9988  -39.4243 H         0        0    0.0000
      7 C          57.8873  138.9906  -37.3321 C.3       1        0    0.0000
      8 C          59.1651  139.3337  -36.5584 C.3       1        0    0.0000
      9 H          57.0071  139.3408  -36.7788 H         1        0    0.0000
     10 H          57.7865  137.9025  -37.4283 H         1        0    0.0000
     11 H          60.0454  139.1570  -37.1887 H         1        0    0.0000
     12 H          59.1727  140.3995  -36.2984 H         1        0    0.0000
     13 C          59.3077  138.4919  -35.2437 C.3       2        0    0.0000
     14 C          60.2052  139.1789  -34.2085 C.3       2        0    0.0000
     15 H          58.3091  138.3223  -34.8223 H         2        0    0.0000
     16 H          59.7141  137.5051  -35.4981 H         2        0    0.0000
     17 H          61.2598  139.0575  -34.4853 H         2        0    0.0000
     18 H          60.0054  140.2575  -34.1942 H         2        0    0.0000
     19 C          59.9926  138.6064  -32.7647 C.3       3        0    0.0000
     20 C          60.6195  139.4989  -31.6879 C.3       3        0    0.0000
     21 H          58.9164  138.4967  -32.5827 H         3        0    0.0000
     22 H          60.4245  137.5991  -32.7166 H         3        0    0.0000
     23 H          61.7088  139.5317  -31.8138 H         3        0    0.0000
     24 H          60.2586  140.5292  -31.7964 H         3        0    0.0000
     25 C          60.2931  138.9993  -30.2383 C.3       4        0    0.0000
     26 C          60.9051  139.9019  -29.1613 C.3       4        0    0.0000
     27 H          59.2038  138.9541  -30.1167 H         4        0    0.0000
     28 H          60.6655  137.9736  -30.1256 H         4        0    0.0000
     29 H          61.9949  139.9435  -29.2802 H         4        0    0.0000
     30 H          60.5362  140.9286  -29.2768 H         4        0    0.0000
     31 C          60.5736  139.4059  -27.7117 C.3       5        0    0.0000
     32 C          61.1761  140.3148  -26.6347 C.3       5        0    0.0000
     33 H          59.4838  139.3564  -27.5955 H         5        0    0.0000
     34 H          60.9498  138.3821  -27.5935 H         5        0    0.0000
     35 H          62.2660  140.3633  -26.7501 H         5        0    0.0000
     36 H          60.8009  141.3388  -26.7537 H         5        0    0.0000
     37 C          60.8430  139.8198  -25.1851 C.3       6        0    0.0000
     38 C          61.4513  140.7249  -24.1081 C.3       6        0    0.0000
     39 H          59.7530  139.7761  -25.0681 H         6        0    0.0000
     40 H          61.2138  138.7940  -25.0677 H         6        0    0.0000
     41 H          62.5410  140.7697  -24.2260 H         6        0    0.0000
     42 H          61.0794  141.7504  -24.2246 H         6        0    0.0000
     43 C          61.1198  140.2288  -22.6585 C.3       7        0    0.0000
     44 C          61.0832  141.3783  -21.6454 C.3       7        0    0.0000
     45 H          60.1529  139.7106  -22.6745 H         7        0    0.0000
     46 H          61.8700  139.4867  -22.3585 H         7        0    0.0000
     47 H          62.0789  141.8293  -21.5521 H         7        0    0.0000
     48 H          60.4107  142.1698  -21.9986 H         7        0    0.0000
     49 C          60.6075  140.9063  -20.2282 C.3       8        0    0.0000
     50 C          61.5841  141.3174  -19.1209 C.3       8        0    0.0000
     51 H          59.6145  141.3284  -20.0298 H         8        0    0.0000
     52 H          60.4896  139.8156  -20.2399 H         8        0    0.0000
     53 H          62.6166  141.2486  -19.4853 H         8        0    0.0000
     54 H          61.4175  142.3654  -18.8425 H         8        0    0.0000
     55 C          61.4398  140.4253  -17.8400 C.3       9        0    0.0000
     56 C          61.1411  141.2538  -16.5857 C.3       9        0    0.0000
     57 H          60.6396  139.6936  -18.0070 H         9        0    0.0000
     58 H          62.3657  139.8533  -17.7013 H         9        0    0.0000
     59 H          62.0543  141.7525  -16.2380 H         9        0    0.0000
     60 H          60.4196  142.0460  -16.8212 H         9        0    0.0000
     61 C          60.5676  140.3787  -15.4183 C.3      10        0    0.0000
     62 C          61.0055  140.8887  -14.0409 C.3      10        0    0.0000
     63 H          59.4727  140.3721  -15.4864 H        10        0    0.0000
     64 H          60.8982  139.3420  -15.5582 H        10        0    0.0000
     65 H          62.0913  141.0443  -14.0252 H        10        0    0.0000
     66 H          60.5446  141.8630  -13.8366 H        10        0    0.0000
     67 C          60.6205  139.8963  -12.8901 C.3      11        0    0.0000
     68 C          60.8730  140.4921  -11.5007 C.3      11        0    0.0000
     69 H          59.5630  139.6246  -12.9964 H        11        0    0.0000
     70 H          61.1973  138.9712  -13.0131 H        11        0    0.0000
     71 H          61.9383  140.7239  -11.3787 H        11        0    0.0000
     72 H          60.3301  141.4393  -11.3933 H        11        0    0.0000
     73 C          60.4316  139.5235  -10.3498 C.3      12        0    0.0000
     74 C          60.7000  140.1121   -8.9604 C.3      12        0    0.0000
     75 H          59.3633  139.3017  -10.4645 H        12        0    0.0000
     76 H          60.9650  138.5717  -10.4646 H        12        0    0.0000
     77 H          61.7678  140.3364   -8.8467 H        12        0    0.0000
     78 H          60.1643  141.0625   -8.8446 H        12        0    0.0000
     79 C          60.2622  139.1419   -7.8095 C.3      13        0    0.0000
     80 C          60.5297  139.7308   -6.4200 C.3      13        0    0.0000
     81 H          59.1945  138.9171   -7.9235 H        13        0    0.0000
     82 H          60.7983  138.1917   -7.9249 H        13        0    0.0000
     83 H          61.5976  139.9545   -6.3056 H        13        0    0.0000
     84 H          59.9946  140.6816   -6.3050 H        13        0    0.0000
     85 C          60.0904  138.7613   -5.2691 C.3      14        0    0.0000
     86 C          60.3576  139.3504   -3.8797 C.3      14        0    0.0000
     87 H          59.0226  138.5374   -5.3838 H        14        0    0.0000
     88 H          60.6257  137.8107   -5.3840 H        14        0    0.0000
     89 H          61.4261  139.5703   -3.7635 H        14        0    0.0000
     90 H          59.8258  140.3033   -3.7665 H        14        0    0.0000
     91 C          59.9126  138.3835   -2.7288 C.3      15        0    0.0000
     92 C          60.1923  138.9669   -1.3394 C.3      15        0    0.0000
     93 H          58.8418  138.1717   -2.8393 H        15        0    0.0000
     94 H          60.4369  137.4272   -2.8478 H        15        0    0.0000
     95 H          61.2571  139.2120   -1.2417 H        15        0    0.0000
     96 H          59.6396  139.9052   -1.2071 H        15        0    0.0000
     97 C          59.7936  137.9792   -0.1891 C.3      16        0    0.0000
     98 C          60.6827  138.1402    1.0488 C.3      16        0    0.0000
     99 H          58.7434  138.1518    0.0770 H        16        0    0.0000
    100 H          59.8579  136.9514   -0.5674 H        16        0    0.0000
    101 H          61.7334  138.2344    0.7477 H        16        0    0.0000
    102 H          60.4234  139.0640    1.5807 H        16        0    0.0000
    103 C          60.5472  136.9322    2.0387 C.3      17        0    0.0000
    104 C          61.9003  136.4952    2.6106 C.3      17        0    0.0000
    105 H          59.8689  137.2165    2.8528 H        17        0    0.0000
    106 H          60.0734  136.0947    1.5118 H        17        0    0.0000
    107 H          62.6554  136.4730    1.8151 H        17        0    0.0000
    108 H          62.2474  137.2235    3.3541 H        17        0    0.0000
    109 C          61.8325  135.0805    3.2825 C.3      18        0    0.0000
    110 C          62.1856  135.1279    4.7732 C.3      18        0    0.0000
    111 H          60.8228  134.6732    3.1479 H        18        0    0.0000
    112 H          62.5175  134.4053    2.7550 H        18        0    0.0000
    113 H          63.2564  134.9343    4.9125 H        18        0    0.0000
    114 H          61.9919  136.1306    5.1739 H        18        0    0.0000
    115 C          61.3702  134.0831    5.6104 C.3      19        0    0.0000
    116 C          62.2178  132.8703    6.0099 C.3      19        0    0.0000
    117 H          60.9760  134.5782    6.5065 H        19        0    0.0000
    118 H          60.5027  133.7584    5.0225 H        19        0    0.0000
    119 H          63.0798  132.7759    5.3379 H        19        0    0.0000
    120 H          62.6203  133.0093    7.0210 H        19        0    0.0000
    121 C          61.3986  131.5342    5.9715 C.3      20        0    0.0000
    122 C          61.3346  130.8525    7.3427 C.3      20        0    0.0000
    123 H          60.3852  131.7511    5.6115 H        20        0    0.0000
    124 H          61.8563  130.8599    5.2371 H        20        0    0.0000
    125 H          62.2603  130.2940    7.5287 H        20        0    0.0000
    126 H          61.2576  131.6075    8.1349 H        20        0    0.0000
    127 C          60.1190  129.8698    7.4614 C.3      21        0    0.0000
    128 C          60.5604  128.4028    7.5072 C.3      21        0    0.0000
    129 H          59.5494  130.1196    8.3651 H        21        0    0.0000
    130 H          59.4471  130.0340    6.6099 H        21        0    0.0000
    131 H          61.6132  128.3359    7.8083 H        21        0    0.0000
    132 H          59.9812  127.8591    8.2638 H        21        0    0.0000
    133 C          60.3840  127.6859    6.1243 C.3      22        0    0.0000
    134 C          59.8295  126.2648    6.2733 C.3      22        0    0.0000
    135 H          59.7142  128.2872    5.4972 H        22        0    0.0000
    136 H          61.3545  127.6593    5.6134 H        22        0    0.0000
    137 H          60.4993  125.6635    6.9004 H        22        0    0.0000
    138 H          58.8591  126.2913    6.7842 H        22        0    0.0000
    139 H          59.7068  125.7663    5.3117 H        22        0    0.0000
    140 H          59.2798  139.7887  -40.4349 H         0        0    0.0000
@<TRIPOS>BOND
     1     1     2      1
     2     1     3      1
     3     1     4      1
     4     1   140      H
     5     2     5      1
     6     2     6      1
     7     2     7      1
     8     7     8      1
     9     7     9      1
    10     7    10      1
    11     8    11      1
    12     8    12      1
    13     8    13      1
    14    13    14      1
    15    13    15      1
    16    13    16      1
    17    14    17      1
    18    14    18      1
    19    14    19      1
    20    19    20      1
    21    19    21      1
    22    19    22      1
    23    20    23      1
    24    20    24      1
    25    20    25      1
    26    25    26      1
    27    25    27      1
    28    25    28      1
    29    26    29      1
    30    26    30      1
    31    26    31      1
    32    31    32      1
    33    31    33      1
    34    31    34      1
    35    32    35      1
    36    32    36      1
    37    32    37      1
    38    37    38      1
    39    37    39      1
    40    37    40      1
    41    38    41      1
    42    38    42      1
    43    38    43      1
    44    43    44      1
    45    43    45      1
    46    43    46      1
    47    44    47      1
    48    44    48      1
    49    44    49      1
    50    49    50      1
    51    49    51      1
    52    49    52      1
    53    50    53      1
    54    50    54      1
    55    50    55      1
    56    55    56      1
    57    55    57      1
    58    55    58      1
    59    56    59      1
    60    56    60      1
    61    56    61      1
    62    61    62      1
    63    61    63      1
    64    61    64      1
    65    62    65      1
    66    62    66      1
    67    62    67      1
    68    67    68      1
    69    67    69      1
    70    67    70      1
    71    68    71      1
    72    68    72      1
    73    68    73      1
    74    73    74      1
    75    73    75      1
    76    73    76      1
    77    74    77      1
    78    74    78      1
    79    74    79      1
    80    79    80      1
    81    79    81      1
    82    79    82      1
    83    80    83      1
    84    80    84      1
    85    80    85      1
    86    85    86      1
    87    85    87      1
    88    85    88      1
    89    86    89      1
    90    86    90      1
    91    86    91      1
    92    91    92      1
    93    91    93      1
    94    91    94      1
    95    92    95      1
    96    92    96      1
    97    92    97      1
    98    97    98      1
    99    97    99      1
   100    97   100      1
   101    98   101      1
   102    98   102      1
   103    98   103      1
   104   103   104      1
   105   103   105      1
   106   103   106      1
   107   104   107      1
   108   104   108      1
   109   104   109      1
   110   109   110      1
   111   109   111      1
   112   109   112      1
   113   110   113      1
   114   110   114      1
   115   110   115      1
   116   115   116      1
   117   115   117      1
   118   115   118      1
   119   116   119      1
   120   116   120      1
   121   116   121      1
   122   121   122      1
   123   121   123      1
   124   121   124      1
   125   122   125      1
   126   122   126      1
   127   122   127      1
   128   127   128      1
   129   127   129      1
   130   127   130      1
   131   128   131      1
   132   128   132      1
   133   128   133      1
   134   133   134      1
   135   133   135      1
   136   133   136      1
   137   134   137      1
   138   134   138      1
   139   134   139      H
