###
### Created by PolyChef-cpp17 on Thu Feb 27 19:40:30 2025
###

@<TRIPOS>MOLECULE
NO_INFO
146 145 1 0 0
SMALL
USER_CHARGES


@<TRIPOS>ATOM
      1 C          39.2798  139.7887  -39.3449 C.3       0        0    0.0000
      2 C          37.8706  139.6282  -38.7641 C.3       0        0    0.0000
      3 H          39.9271  138.9766  -38.9914 H         0        0    0.0000
      4 H          39.7280  140.7255  -38.9913 H         0        0    0.0000
      5 H          37.3723  140.6041  -38.7108 H         0        0    0.0000
      6 H          37.2610  138.9988  -39.4243 H         0        0    0.0000
      7 C          37.8873  138.9905  -37.3321 C.3       1        0    0.0000
      8 C          39.1650  139.3337  -36.5583 C.3       1        0    0.0000
      9 H          37.0070  139.3406  -36.7789 H         1        0    0.0000
     10 H          37.7867  137.9023  -37.4284 H         1        0    0.0000
     11 H          40.0453  139.1591  -37.1893 H         1        0    0.0000
     12 H          39.1714  140.3990  -36.2964 H         1        0    0.0000
     13 C          39.3091  138.4897  -35.2452 C.3       2        0    0.0000
     14 C          40.2027  139.1779  -34.2075 C.3       2        0    0.0000
     15 H          38.3106  138.3155  -34.8255 H         2        0    0.0000
     16 H          39.7195  137.5050  -35.5011 H         2        0    0.0000
     17 H          41.2581  139.0618  -34.4836 H         2        0    0.0000
     18 H          39.9982  140.2556  -34.1906 H         2        0    0.0000
     19 C          39.9913  138.6009  -32.7653 C.3       3        0    0.0000
     20 C          40.6101  139.4953  -31.6854 C.3       3        0    0.0000
     21 H          38.9154  138.4837  -32.5856 H         3        0    0.0000
     22 H          40.4298  137.5964  -32.7186 H         3        0    0.0000
     23 H          41.6995  139.5352  -31.8088 H         3        0    0.0000
     24 H          40.2430  140.5235  -31.7927 H         3        0    0.0000
     25 C          40.2838  138.9908  -30.2375 C.3       4        0    0.0000
     26 C          40.8866  139.8960  -29.1574 C.3       4        0    0.0000
     27 H          39.1945  138.9375  -30.1187 H         4        0    0.0000
     28 H          40.6634  137.9676  -30.1256 H         4        0    0.0000
     29 H          41.9763  139.9458  -29.2736 H         4        0    0.0000
     30 H          40.5103  140.9201  -29.2719 H         4        0    0.0000
     31 C          40.5552  139.3949  -27.7095 C.3       5        0    0.0000
     32 C          41.1534  140.3030  -26.6295 C.3       5        0    0.0000
     33 H          39.4655  139.3412  -27.5946 H         5        0    0.0000
     34 H          40.9350  138.3722  -27.5937 H         5        0    0.0000
     35 H          42.2433  140.3555  -26.7434 H         5        0    0.0000
     36 H          40.7748  141.3261  -26.7462 H         5        0    0.0000
     37 C          40.8202  139.8031  -25.1815 C.3       6        0    0.0000
     38 C          41.4394  140.6972  -24.1015 C.3       6        0    0.0000
     39 H          39.7303  139.7681  -25.0615 H         6        0    0.0000
     40 H          41.1826  138.7736  -25.0707 H         6        0    0.0000
     41 H          42.5291  140.7340  -24.2229 H         6        0    0.0000
     42 H          41.0753  141.7263  -24.2109 H         6        0    0.0000
     43 C          41.1089  140.1955  -22.6536 C.3       7        0    0.0000
     44 C          41.1331  141.3319  -21.6254 C.3       7        0    0.0000
     45 H          40.1219  139.7167  -22.6619 H         7        0    0.0000
     46 H          41.8328  139.4200  -22.3742 H         7        0    0.0000
     47 H          42.1452  141.7482  -21.5487 H         7        0    0.0000
     48 H          40.4799  142.1500  -21.9535 H         7        0    0.0000
     49 C          40.6731  140.8570  -20.2041 C.3       8        0    0.0000
     50 C          41.6818  141.2302  -19.1122 C.3       8        0    0.0000
     51 H          39.6957  141.3028  -19.9815 H         8        0    0.0000
     52 H          40.5262  139.7700  -20.2248 H         8        0    0.0000
     53 H          42.7052  141.1166  -19.4909 H         8        0    0.0000
     54 H          41.5636  142.2852  -18.8356 H         8        0    0.0000
     55 C          41.5183  140.3492  -17.8260 C.3       9        0    0.0000
     56 C          41.2460  141.1921  -16.5753 C.3       9        0    0.0000
     57 H          40.6983  139.6382  -17.9863 H         9        0    0.0000
     58 H          42.4291  139.7536  -17.6872 H         9        0    0.0000
     59 H          42.1757  141.6584  -16.2262 H         9        0    0.0000
     60 H          40.5546  142.0093  -16.8156 H         9        0    0.0000
     61 C          40.6373  140.3423  -15.4070 C.3      10        0    0.0000
     62 C          41.0898  140.8399  -14.0298 C.3      10        0    0.0000
     63 H          39.5430  140.3760  -15.4783 H        10        0    0.0000
     64 H          40.9297  139.2937  -15.5429 H        10        0    0.0000
     65 H          42.1803  140.9584  -14.0123 H        10        0    0.0000
     66 H          40.6622  141.8299  -13.8284 H        10        0    0.0000
     67 C          40.6690  139.8637  -12.8777 C.3      11        0    0.0000
     68 C          40.9372  140.4543  -11.4890 C.3      11        0    0.0000
     69 H          39.6033  139.6270  -12.9864 H        11        0    0.0000
     70 H          41.2151  138.9198  -12.9969 H        11        0    0.0000
     71 H          42.0088  140.6543  -11.3659 H        11        0    0.0000
     72 H          40.4228  141.4176  -11.3842 H        11        0    0.0000
     73 C          40.4653  139.5016  -10.3370 C.3      12        0    0.0000
     74 C          40.7439  140.0871   -8.9483 C.3      12        0    0.0000
     75 H          39.3919  139.3083  -10.4553 H        12        0    0.0000
     76 H          40.9733  138.5355  -10.4467 H        12        0    0.0000
     77 H          41.8165  140.2861   -8.8322 H        12        0    0.0000
     78 H          40.2309  141.0504   -8.8364 H        12        0    0.0000
     79 C          40.2799  139.1306   -7.7962 C.3      13        0    0.0000
     80 C          40.5591  139.7159   -6.4075 C.3      13        0    0.0000
     81 H          39.2072  138.9321   -7.9120 H        13        0    0.0000
     82 H          40.7925  138.1672   -7.9084 H        13        0    0.0000
     83 H          41.6318  139.9144   -6.2917 H        13        0    0.0000
     84 H          40.0465  140.6794   -6.2953 H        13        0    0.0000
     85 C          40.0949  138.7595   -5.2554 C.3      14        0    0.0000
     86 C          40.3788  139.3424   -3.8667 C.3      14        0    0.0000
     87 H          39.0214  138.5641   -5.3691 H        14        0    0.0000
     88 H          40.6045  137.7947   -5.3698 H        14        0    0.0000
     89 H          41.4516  139.5432   -3.7552 H        14        0    0.0000
     90 H          39.8645  140.3044   -3.7502 H        14        0    0.0000
     91 C          39.9220  138.3825   -2.7146 C.3      15        0    0.0000
     92 C          40.1787  138.9782   -1.3260 C.3      15        0    0.0000
     93 H          38.8540  138.1643   -2.8388 H        15        0    0.0000
     94 H          40.4526  137.4279   -2.8184 H        15        0    0.0000
     95 H          41.2437  139.2140   -1.2089 H        15        0    0.0000
     96 H          39.6328  139.9233   -1.2154 H        15        0    0.0000
     97 C          39.7466  138.0071   -0.1738 C.3      16        0    0.0000
     98 C          39.5101  138.7443    1.1490 C.3      16        0    0.0000
     99 H          38.8341  137.4801   -0.4791 H        16        0    0.0000
    100 H          40.5235  137.2433   -0.0451 H        16        0    0.0000
    101 H          39.2355  138.0291    1.9343 H        16        0    0.0000
    102 H          40.4354  139.2333    1.4778 H        16        0    0.0000
    103 C          38.3809  139.8254    1.0329 C.3      17        0    0.0000
    104 C          38.2558  140.6734    2.3035 C.3      17        0    0.0000
    105 H          38.5948  140.4690    0.1707 H        17        0    0.0000
    106 H          37.4294  139.3218    0.8217 H        17        0    0.0000
    107 H          37.5852  140.1820    3.0193 H        17        0    0.0000
    108 H          39.2326  140.7602    2.7954 H        17        0    0.0000
    109 C          37.7102  142.1126    2.0060 C.3      18        0    0.0000
    110 C          37.4692  142.9187    3.2870 C.3      18        0    0.0000
    111 H          38.4269  142.6362    1.3612 H        18        0    0.0000
    112 H          36.7775  142.0261    1.4349 H        18        0    0.0000
    113 H          38.0470  142.4903    4.1154 H        18        0    0.0000
    114 H          37.8233  143.9487    3.1555 H        18        0    0.0000
    115 C          35.9551  142.9528    3.6916 C.3      19        0    0.0000
    116 C          35.6955  143.8674    4.8937 C.3      19        0    0.0000
    117 H          35.3661  143.2887    2.8291 H        19        0    0.0000
    118 H          35.6267  141.9309    3.9185 H        19        0    0.0000
    119 H          34.6185  143.9299    5.0931 H        19        0    0.0000
    120 H          36.1587  143.4456    5.7943 H        19        0    0.0000
    121 C          36.2527  145.3155    4.6697 C.3      20        0    0.0000
    122 C          36.1559  146.1770    5.9336 C.3      20        0    0.0000
    123 H          37.2970  145.2456    4.3411 H        20        0    0.0000
    124 H          35.6954  145.7859    3.8501 H        20        0    0.0000
    125 H          37.1568  146.3517    6.3473 H        20        0    0.0000
    126 H          35.7408  147.1620    5.6865 H        20        0    0.0000
    127 C          35.2615  145.5142    7.0373 C.3      21        0    0.0000
    128 C          35.0817  146.4200    8.2605 C.3      21        0    0.0000
    129 H          34.2841  145.2717    6.6019 H        21        0    0.0000
    130 H          35.7174  144.5627    7.3376 H        21        0    0.0000
    131 H          34.3720  145.9664    8.9635 H        21        0    0.0000
    132 H          36.0337  146.5224    8.7960 H        21        0    0.0000
    133 C          34.5647  147.8479    7.8715 C.3      22        0    0.0000
    134 C          34.5823  148.8157    9.0599 C.3      22        0    0.0000
    135 H          35.1874  148.2400    7.0579 H        22        0    0.0000
    136 H          33.5461  147.7590    7.4739 H        22        0    0.0000
    137 H          34.2612  149.8138    8.7370 H        22        0    0.0000
    138 H          33.8670  148.4865    9.8237 H        22        0    0.0000
    139 C          36.0028  148.9286    9.7132 C.3      23        0    0.0000
    140 C          36.4800  150.3812    9.8184 C.3      23        0    0.0000
    141 H          35.9714  148.4699   10.7092 H        23        0    0.0000
    142 H          36.7133  148.3414    9.1182 H        23        0    0.0000
    143 H          36.5114  150.8400    8.8223 H        23        0    0.0000
    144 H          35.7695  150.9684   10.4134 H        23        0    0.0000
    145 H          37.4677  150.4597   10.2726 H        23        0    0.0000
    146 H          39.2798  139.7887  -40.4349 H         0        0    0.0000
@<TRIPOS>BOND
     1     1     2      1
     2     1     3      1
     3     1     4      1
     4     1   146      H
     5     2     5      1
     6     2     6      1
     7     2     7      1
     8     7     8      1
     9     7     9      1
    10     7    10      1
    11     8    11      1
    12     8    12      1
    13     8    13      1
    14    13    14      1
    15    13    15      1
    16    13    16      1
    17    14    17      1
    18    14    18      1
    19    14    19      1
    20    19    20      1
    21    19    21      1
    22    19    22      1
    23    20    23      1
    24    20    24      1
    25    20    25      1
    26    25    26      1
    27    25    27      1
    28    25    28      1
    29    26    29      1
    30    26    30      1
    31    26    31      1
    32    31    32      1
    33    31    33      1
    34    31    34      1
    35    32    35      1
    36    32    36      1
    37    32    37      1
    38    37    38      1
    39    37    39      1
    40    37    40      1
    41    38    41      1
    42    38    42      1
    43    38    43      1
    44    43    44      1
    45    43    45      1
    46    43    46      1
    47    44    47      1
    48    44    48      1
    49    44    49      1
    50    49    50      1
    51    49    51      1
    52    49    52      1
    53    50    53      1
    54    50    54      1
    55    50    55      1
    56    55    56      1
    57    55    57      1
    58    55    58      1
    59    56    59      1
    60    56    60      1
    61    56    61      1
    62    61    62      1
    63    61    63      1
    64    61    64      1
    65    62    65      1
    66    62    66      1
    67    62    67      1
    68    67    68      1
    69    67    69      1
    70    67    70      1
    71    68    71      1
    72    68    72      1
    73    68    73      1
    74    73    74      1
    75    73    75      1
    76    73    76      1
    77    74    77      1
    78    74    78      1
    79    74    79      1
    80    79    80      1
    81    79    81      1
    82    79    82      1
    83    80    83      1
    84    80    84      1
    85    80    85      1
    86    85    86      1
    87    85    87      1
    88    85    88      1
    89    86    89      1
    90    86    90      1
    91    86    91      1
    92    91    92      1
    93    91    93      1
    94    91    94      1
    95    92    95      1
    96    92    96      1
    97    92    97      1
    98    97    98      1
    99    97    99      1
   100    97   100      1
   101    98   101      1
   102    98   102      1
   103    98   103      1
   104   103   104      1
   105   103   105      1
   106   103   106      1
   107   104   107      1
   108   104   108      1
   109   104   109      1
   110   109   110      1
   111   109   111      1
   112   109   112      1
   113   110   113      1
   114   110   114      1
   115   110   115      1
   116   115   116      1
   117   115   117      1
   118   115   118      1
   119   116   119      1
   120   116   120      1
   121   116   121      1
   122   121   122      1
   123   121   123      1
   124   121   124      1
   125   122   125      1
   126   122   126      1
   127   122   127      1
   128   127   128      1
   129   127   129      1
   130   127   130      1
   131   128   131      1
   132   128   132      1
   133   128   133      1
   134   133   134      1
   135   133   135      1
   136   133   136      1
   137   134   137      1
   138   134   138      1
   139   134   139      1
   140   139   140      1
   141   139   141      1
   142   139   142      1
   143   140   143      1
   144   140   144      1
   145   140   145      H
