###
### Created by PolyChef-cpp17 on Thu Feb 27 19:40:30 2025
###

@<TRIPOS>MOLECULE
NO_INFO
176 175 1 0 0
SMALL
USER_CHARGES


@<TRIPOS>ATOM
      1 C          69.2798   53.1887  120.6551 C.3       0        0    0.0000
      2 C          68.4513   52.0375  120.0742 C.3       0        0    0.0000
      3 H          68.8875   54.1502  120.3014 H         0        0    0.0000
      4 H          70.3162   53.1221  120.3014 H         0        0    0.0000
      5 H          68.4077   51.2070  120.7897 H         0        0    0.0000
      6 H          67.4174   52.3646  119.9079 H         0        0    0.0000
      7 C          69.0376   51.5076  118.7204 C.3       1        0    0.0000
      8 C          69.6327   52.6320  117.8655 C.3       1        0    0.0000
      9 H          69.8049   50.7543  118.9380 H         1        0    0.0000
     10 H          68.2412   50.9953  118.1665 H         1        0    0.0000
     11 H          68.9394   53.4812  117.8254 H         1        0    0.0000
     12 H          70.5585   53.0024  118.3228 H         1        0    0.0000
     13 C          69.9439   52.1643  116.4020 C.3       2        0    0.0000
     14 C          69.8828   53.3203  115.3974 C.3       2        0    0.0000
     15 H          70.9383   51.7014  116.3826 H         2        0    0.0000
     16 H          69.2271   51.3830  116.1204 H         2        0    0.0000
     17 H          68.9607   53.8966  115.5428 H         2        0    0.0000
     18 H          70.7169   54.0120  115.5687 H         2        0    0.0000
     19 C          69.9375   52.8206  113.9126 C.3       3        0    0.0000
     20 C          69.8172   53.9715  112.9076 C.3       3        0    0.0000
     21 H          70.8797   52.2810  113.7555 H         3        0    0.0000
     22 H          69.1293   52.0961  113.7533 H         3        0    0.0000
     23 H          68.8811   54.5190  113.0730 H         3        0    0.0000
     24 H          70.6329   54.6894  113.0584 H         3        0    0.0000
     25 C          69.8536   53.4699  111.4228 C.3       4        0    0.0000
     26 C          69.9413   54.6265  110.4210 C.3       4        0    0.0000
     27 H          70.7116   52.7979  111.2975 H         4        0    0.0000
     28 H          68.9543   52.8721  111.2294 H         4        0    0.0000
     29 H          69.0681   55.2822  110.5260 H         4        0    0.0000
     30 H          70.8245   55.2417  110.6331 H         4        0    0.0000
     31 C          70.0201   54.1236  108.9383 C.3       5        0    0.0000
     32 C          69.0091   54.8321  108.0301 C.3       5        0    0.0000
     33 H          71.0389   54.2840  108.5642 H         5        0    0.0000
     34 H          69.8456   53.0406  108.9225 H         5        0    0.0000
     35 H          68.0436   54.9250  108.5426 H         5        0    0.0000
     36 H          69.3494   55.8520  107.8121 H         5        0    0.0000
     37 C          68.7916   54.0719  106.6765 C.3       6        0    0.0000
     38 C          69.2111   54.9115  105.4649 C.3       6        0    0.0000
     39 H          69.3627   53.1355  106.7011 H         6        0    0.0000
     40 H          67.7337   53.7936  106.5933 H         6        0    0.0000
     41 H          68.3725   55.5349  105.1307 H         6        0    0.0000
     42 H          70.0212   55.5966  105.7442 H         6        0    0.0000
     43 C          69.6908   54.0245  104.2647 C.3       7        0    0.0000
     44 C          69.1692   54.5378  102.9181 C.3       7        0    0.0000
     45 H          70.7876   54.0006  104.2589 H         7        0    0.0000
     46 H          69.3542   52.9935  104.4303 H         7        0    0.0000
     47 H          68.0942   54.7460  102.9857 H         7        0    0.0000
     48 H          69.6582   55.4858  102.6619 H         7        0    0.0000
     49 C          69.4134   53.5134  101.7568 C.3       8        0    0.0000
     50 C          69.2582   54.1554  100.3738 C.3       8        0    0.0000
     51 H          70.4198   53.0902  101.8644 H         8        0    0.0000
     52 H          68.7080   52.6803  101.8661 H         8        0    0.0000
     53 H          68.2293   54.5107  100.2373 H         8        0    0.0000
     54 H          69.9087   55.0350  100.2923 H         8        0    0.0000
     55 C          69.6070   53.1598   99.2142 C.3       9        0    0.0000
     56 C          69.3952   53.7831   97.8301 C.3       9        0    0.0000
     57 H          70.6498   52.8379   99.3261 H         9        0    0.0000
     58 H          68.9868   52.2613   99.3210 H         9        0    0.0000
     59 H          68.3549   54.1142   97.7219 H         9        0    0.0000
     60 H          70.0231   54.6759   97.7195 H         9        0    0.0000
     61 C          69.7304   52.7829   96.6705 C.3      10        0    0.0000
     62 C          69.5126   53.4042   95.2864 C.3      10        0    0.0000
     63 H          70.7721   52.4554   96.7761 H        10        0    0.0000
     64 H          69.1059   51.8882   96.7837 H        10        0    0.0000
     65 H          68.4707   53.7311   95.1806 H        10        0    0.0000
     66 H          70.1366   54.2994   95.1735 H        10        0    0.0000
     67 C          69.8488   52.4043   94.1268 C.3      11        0    0.0000
     68 C          69.6377   53.0279   92.7427 C.3      11        0    0.0000
     69 H          70.8891   52.0735   94.2356 H        11        0    0.0000
     70 H          69.2210   51.5114   94.2368 H        11        0    0.0000
     71 H          68.5961   53.3539   92.6319 H        11        0    0.0000
     72 H          70.2614   53.9239   92.6348 H        11        0    0.0000
     73 C          69.9812   52.0305   91.5831 C.3      12        0    0.0000
     74 C          69.7684   52.6535   90.1990 C.3      12        0    0.0000
     75 H          71.0232   51.7055   91.6932 H        12        0    0.0000
     76 H          69.3584   51.1339   91.6918 H        12        0    0.0000
     77 H          68.7278   52.9837   90.0911 H        12        0    0.0000
     78 H          70.3956   53.5467   90.0882 H        12        0    0.0000
     79 C          70.1040   51.6534   89.0394 C.3      13        0    0.0000
     80 C          69.8930   52.2769   87.6554 C.3      13        0    0.0000
     81 H          71.1441   51.3221   89.1481 H        13        0    0.0000
     82 H          69.4759   50.7607   89.1496 H        13        0    0.0000
     83 H          68.8533   52.6101   87.5474 H        13        0    0.0000
     84 H          70.5226   53.1684   87.5445 H        13        0    0.0000
     85 C          70.2257   51.2759   86.4958 C.3      14        0    0.0000
     86 C          70.0182   51.9006   85.1117 C.3      14        0    0.0000
     87 H          71.2645   50.9406   86.6052 H        14        0    0.0000
     88 H          69.5942   50.3855   86.6051 H        14        0    0.0000
     89 H          68.9779   52.2304   85.0000 H        14        0    0.0000
     90 H          70.6453   52.7944   85.0045 H        14        0    0.0000
     91 C          70.3590   50.9023   83.9521 C.3      15        0    0.0000
     92 C          70.1577   51.5291   82.5680 C.3      15        0    0.0000
     93 H          71.3979   50.5688   84.0665 H        15        0    0.0000
     94 H          69.7286   50.0105   84.0565 H        15        0    0.0000
     95 H          69.1898   52.0438   82.5254 H        15        0    0.0000
     96 H          70.9270   52.2891   82.3837 H        15        0    0.0000
     97 C          70.2144   50.4637   81.4194 C.3      16        0    0.0000
     98 C          70.0037   51.0892   80.0361 C.3      16        0    0.0000
     99 H          71.1850   49.9538   81.4578 H        16        0    0.0000
    100 H          69.4496   49.7000   81.6074 H        16        0    0.0000
    101 H          70.3786   52.1201   80.0284 H        16        0    0.0000
    102 H          70.5803   50.5386   79.2826 H        16        0    0.0000
    103 C          68.4948   51.0971   79.6113 C.3      17        0    0.0000
    104 C          68.3179   51.2769   78.0996 C.3      17        0    0.0000
    105 H          68.0313   50.1569   79.9351 H        17        0    0.0000
    106 H          67.9803   51.9034   80.1488 H        17        0    0.0000
    107 H          68.5401   52.3130   77.8154 H        17        0    0.0000
    108 H          69.0311   50.6422   77.5593 H        17        0    0.0000
    109 C          66.8663   50.9230   77.6250 C.3      18        0    0.0000
    110 C          66.7543   50.8573   76.0978 C.3      18        0    0.0000
    111 H          66.5749   49.9614   78.0653 H        18        0    0.0000
    112 H          66.1718   51.6742   78.0211 H        18        0    0.0000
    113 H          66.9818   51.8378   75.6614 H        18        0    0.0000
    114 H          67.4946   50.1543   75.6963 H        18        0    0.0000
    115 C          65.3272   50.4128   75.6254 C.3      19        0    0.0000
    116 C          65.2186   50.3357   74.0985 C.3      19        0    0.0000
    117 H          65.0962   49.4363   76.0687 H        19        0    0.0000
    118 H          64.5877   51.1207   76.0198 H        19        0    0.0000
    119 H          65.4498   51.3122   73.6552 H        19        0    0.0000
    120 H          65.9581   49.6277   73.7041 H        19        0    0.0000
    121 C          63.7915   49.8913   73.6261 C.3      20        0    0.0000
    122 C          63.6961   49.7696   72.1012 C.3      20        0    0.0000
    123 H          63.5465   48.9308   74.0961 H        20        0    0.0000
    124 H          63.0556   50.6179   73.9922 H        20        0    0.0000
    125 H          63.9356   50.7316   71.6314 H        20        0    0.0000
    126 H          64.4358   49.0472   71.7345 H        20        0    0.0000
    127 C          62.2712   49.3176   71.6292 C.3      21        0    0.0000
    128 C          62.3318   48.1643   70.6217 C.3      21        0    0.0000
    129 H          61.6858   49.0193   72.5078 H        21        0    0.0000
    130 H          61.7563   50.1785   71.1850 H        21        0    0.0000
    131 H          62.2666   48.5548   69.5985 H        21        0    0.0000
    132 H          63.2957   47.6464   70.7003 H        21        0    0.0000
    133 C          61.1798   47.1237   70.8398 C.3      22        0    0.0000
    134 C          59.9513   47.4276   69.9753 C.3      22        0    0.0000
    135 H          61.5614   46.1208   70.6119 H        22        0    0.0000
    136 H          60.9017   47.1214   71.9010 H        22        0    0.0000
    137 H          60.2656   47.8063   68.9948 H        22        0    0.0000
    138 H          59.3844   46.5067   69.7903 H        22        0    0.0000
    139 C          59.0008   48.4806   70.6426 C.3      23        0    0.0000
    140 C          57.5211   48.1274   70.4568 C.3      23        0    0.0000
    141 H          59.2406   48.5462   71.7111 H        23        0    0.0000
    142 H          59.2089   49.4678   70.2118 H        23        0    0.0000
    143 H          57.1075   48.6773   69.6023 H        23        0    0.0000
    144 H          57.4152   47.0602   70.2257 H        23        0    0.0000
    145 C          56.6675   48.4559   71.7299 C.3      24        0    0.0000
    146 C          55.9035   47.2326   72.2486 C.3      24        0    0.0000
    147 H          57.3328   48.8431   72.5115 H        24        0    0.0000
    148 H          55.9650   49.2625   71.4862 H        24        0    0.0000
    149 H          55.0132   47.5527   72.8038 H        24        0    0.0000
    150 H          55.5484   46.6260   71.4063 H        24        0    0.0000
    151 C          56.7852   46.3337   73.1824 C.3      25        0    0.0000
    152 C          56.0653   45.9681   74.4852 C.3      25        0    0.0000
    153 H          57.0624   45.4228   72.6375 H        25        0    0.0000
    154 H          57.7193   46.8642   73.4049 H        25        0    0.0000
    155 H          54.9818   46.0892   74.3630 H        25        0    0.0000
    156 H          56.2390   44.9123   74.7275 H        25        0    0.0000
    157 C          56.5391   46.8482   75.6929 C.3      26        0    0.0000
    158 C          57.1319   46.0061   76.8280 C.3      26        0    0.0000
    159 H          57.2818   47.5713   75.3336 H        26        0    0.0000
    160 H          55.6858   47.4303   76.0624 H        26        0    0.0000
    161 H          56.7920   46.3897   77.7980 H        26        0    0.0000
    162 H          56.7740   44.9716   76.7554 H        26        0    0.0000
    163 C          58.6994   46.0010   76.8079 C.3      27        0    0.0000
    164 C          59.2631   45.1091   75.6963 C.3      27        0    0.0000
    165 H          59.0547   47.0311   76.6802 H        27        0    0.0000
    166 H          59.0645   45.6606   77.7848 H        27        0    0.0000
    167 H          60.0576   44.4668   76.0959 H        27        0    0.0000
    168 H          58.4799   44.4417   75.3159 H        27        0    0.0000
    169 C          59.8408   45.9429   74.5010 C.3      28        0    0.0000
    170 C          61.2634   46.4426   74.7754 C.3      28        0    0.0000
    171 H          59.8282   45.3210   73.5973 H        28        0    0.0000
    172 H          59.1743   46.7926   74.3079 H        28        0    0.0000
    173 H          61.2760   47.0645   75.6790 H        28        0    0.0000
    174 H          61.9299   45.5929   74.9684 H        28        0    0.0000
    175 H          61.6651   47.0224   73.9443 H        28        0    0.0000
    176 H          69.2798   53.1887  121.7450 H         0        0    0.0000
@<TRIPOS>BOND
     1     1     2      1
     2     1     3      1
     3     1     4      1
     4     1   176      H
     5     2     5      1
     6     2     6      1
     7     2     7      1
     8     7     8      1
     9     7     9      1
    10     7    10      1
    11     8    11      1
    12     8    12      1
    13     8    13      1
    14    13    14      1
    15    13    15      1
    16    13    16      1
    17    14    17      1
    18    14    18      1
    19    14    19      1
    20    19    20      1
    21    19    21      1
    22    19    22      1
    23    20    23      1
    24    20    24      1
    25    20    25      1
    26    25    26      1
    27    25    27      1
    28    25    28      1
    29    26    29      1
    30    26    30      1
    31    26    31      1
    32    31    32      1
    33    31    33      1
    34    31    34      1
    35    32    35      1
    36    32    36      1
    37    32    37      1
    38    37    38      1
    39    37    39      1
    40    37    40      1
    41    38    41      1
    42    38    42      1
    43    38    43      1
    44    43    44      1
    45    43    45      1
    46    43    46      1
    47    44    47      1
    48    44    48      1
    49    44    49      1
    50    49    50      1
    51    49    51      1
    52    49    52      1
    53    50    53      1
    54    50    54      1
    55    50    55      1
    56    55    56      1
    57    55    57      1
    58    55    58      1
    59    56    59      1
    60    56    60      1
    61    56    61      1
    62    61    62      1
    63    61    63      1
    64    61    64      1
    65    62    65      1
    66    62    66      1
    67    62    67      1
    68    67    68      1
    69    67    69      1
    70    67    70      1
    71    68    71      1
    72    68    72      1
    73    68    73      1
    74    73    74      1
    75    73    75      1
    76    73    76      1
    77    74    77      1
    78    74    78      1
    79    74    79      1
    80    79    80      1
    81    79    81      1
    82    79    82      1
    83    80    83      1
    84    80    84      1
    85    80    85      1
    86    85    86      1
    87    85    87      1
    88    85    88      1
    89    86    89      1
    90    86    90      1
    91    86    91      1
    92    91    92      1
    93    91    93      1
    94    91    94      1
    95    92    95      1
    96    92    96      1
    97    92    97      1
    98    97    98      1
    99    97    99      1
   100    97   100      1
   101    98   101      1
   102    98   102      1
   103    98   103      1
   104   103   104      1
   105   103   105      1
   106   103   106      1
   107   104   107      1
   108   104   108      1
   109   104   109      1
   110   109   110      1
   111   109   111      1
   112   109   112      1
   113   110   113      1
   114   110   114      1
   115   110   115      1
   116   115   116      1
   117   115   117      1
   118   115   118      1
   119   116   119      1
   120   116   120      1
   121   116   121      1
   122   121   122      1
   123   121   123      1
   124   121   124      1
   125   122   125      1
   126   122   126      1
   127   122   127      1
   128   127   128      1
   129   127   129      1
   130   127   130      1
   131   128   131      1
   132   128   132      1
   133   128   133      1
   134   133   134      1
   135   133   135      1
   136   133   136      1
   137   134   137      1
   138   134   138      1
   139   134   139      1
   140   139   140      1
   141   139   141      1
   142   139   142      1
   143   140   143      1
   144   140   144      1
   145   140   145      1
   146   145   146      1
   147   145   147      1
   148   145   148      1
   149   146   149      1
   150   146   150      1
   151   146   151      1
   152   151   152      1
   153   151   153      1
   154   151   154      1
   155   152   155      1
   156   152   156      1
   157   152   157      1
   158   157   158      1
   159   157   159      1
   160   157   160      1
   161   158   161      1
   162   158   162      1
   163   158   163      1
   164   163   164      1
   165   163   165      1
   166   163   166      1
   167   164   167      1
   168   164   168      1
   169   164   169      1
   170   169   170      1
   171   169   171      1
   172   169   172      1
   173   170   173      1
   174   170   174      1
   175   170   175      H
