###
### Created by PolyChef-cpp17 on Thu Feb 27 19:40:29 2025
###

@<TRIPOS>MOLECULE
NO_INFO
992 991 1 0 0
SMALL
USER_CHARGES


@<TRIPOS>ATOM
      1 C          89.2798   53.1887  120.6551 C.3       0        0    0.0000
      2 C          88.4513   52.0375  120.0742 C.3       0        0    0.0000
      3 H          88.8875   54.1502  120.3014 H         0        0    0.0000
      4 H          90.3162   53.1221  120.3014 H         0        0    0.0000
      5 H          88.4068   51.2075  120.7902 H         0        0    0.0000
      6 H          87.4177   52.3649  119.9069 H         0        0    0.0000
      7 C          89.0385   51.5067  118.7211 C.3       1        0    0.0000
      8 C          89.6329   52.6306  117.8652 C.3       1        0    0.0000
      9 H          89.8062   50.7542  118.9398 H         1        0    0.0000
     10 H          88.2426   50.9931  118.1675 H         1        0    0.0000
     11 H          88.9397   53.4800  117.8256 H         1        0    0.0000
     12 H          90.5593   53.0010  118.3214 H         1        0    0.0000
     13 C          89.9425   52.1624  116.4015 C.3       2        0    0.0000
     14 C          89.8835   53.3186  115.3971 C.3       2        0    0.0000
     15 H          90.9359   51.6972  116.3817 H         2        0    0.0000
     16 H          89.2239   51.3827  116.1202 H         2        0    0.0000
     17 H          88.9623   53.8963  115.5423 H         2        0    0.0000
     18 H          90.7187   54.0089  115.5687 H         2        0    0.0000
     19 C          89.9378   52.8189  113.9122 C.3       3        0    0.0000
     20 C          89.8199   53.9701  112.9073 C.3       3        0    0.0000
     21 H          90.8791   52.2777  113.7555 H         3        0    0.0000
     22 H          89.1284   52.0958  113.7526 H         3        0    0.0000
     23 H          88.8831   54.5172  113.0703 H         3        0    0.0000
     24 H          90.6349   54.6883  113.0607 H         3        0    0.0000
     25 C          89.8606   53.4691  111.4225 C.3       4        0    0.0000
     26 C          89.7931   54.6244  110.4176 C.3       4        0    0.0000
     27 H          90.7802   52.8908  111.2695 H         4        0    0.0000
     28 H          89.0236   52.7790  111.2590 H         4        0    0.0000
     29 H          88.8685   55.1966  110.5638 H         4        0    0.0000
     30 H          90.6242   55.3199  110.5876 H         4        0    0.0000
     31 C          89.8483   54.1244  108.9328 C.3       5        0    0.0000
     32 C          88.7451   54.7458  108.0692 C.3       5        0    0.0000
     33 H          90.8337   54.3652  108.5150 H         5        0    0.0000
     34 H          89.7613   53.0308  108.9246 H         5        0    0.0000
     35 H          87.7940   54.7449  108.6159 H         5        0    0.0000
     36 H          88.9829   55.7947  107.8527 H         5        0    0.0000
     37 C          88.5500   53.9818  106.7144 C.3       6        0    0.0000
     38 C          88.8193   54.8762  105.4992 C.3       6        0    0.0000
     39 H          89.2203   53.1135  106.6983 H         6        0    0.0000
     40 H          87.5260   53.5901  106.6736 H         6        0    0.0000
     41 H          87.8925   55.3712  105.1836 H         6        0    0.0000
     42 H          89.5259   55.6716  105.7667 H         6        0    0.0000
     43 C          89.4004   54.0711  104.2861 C.3       7        0    0.0000
     44 C          88.7521   54.4744  102.9572 C.3       7        0    0.0000
     45 H          90.4844   54.2338  104.2404 H         7        0    0.0000
     46 H          89.2501   52.9997  104.4682 H         7        0    0.0000
     47 H          87.6607   54.5037  103.0648 H         7        0    0.0000
     48 H          89.0682   55.4866  102.6763 H         7        0    0.0000
     49 C          89.1189   53.4894  101.7941 C.3       8        0    0.0000
     50 C          88.9196   54.1223  100.4125 C.3       8        0    0.0000
     51 H          90.1619   53.1718  101.9155 H         8        0    0.0000
     52 H          88.5019   52.5871  101.8871 H         8        0    0.0000
     53 H          87.8597   54.3583  100.2562 H         8        0    0.0000
     54 H          89.4661   55.0715  100.3512 H         8        0    0.0000
     55 C          89.4046   53.1843   99.2539 C.3       9        0    0.0000
     56 C          89.1258   53.7796   97.8693 C.3       9        0    0.0000
     57 H          90.4793   52.9999   99.3746 H         9        0    0.0000
     58 H          88.9052   52.2125   99.3530 H         9        0    0.0000
     59 H          88.0536   53.9821   97.7559 H         9        0    0.0000
     60 H          89.6412   54.7422   97.7630 H         9        0    0.0000
     61 C          89.5859   52.8294   96.7105 C.3      10        0    0.0000
     62 C          89.2987   53.4206   95.3259 C.3      10        0    0.0000
     63 H          90.6596   52.6324   96.8200 H        10        0    0.0000
     64 H          89.0757   51.8645   96.8207 H        10        0    0.0000
     65 H          88.2254   53.6200   95.2173 H        10        0    0.0000
     66 H          89.8110   54.3844   95.2148 H        10        0    0.0000
     67 C          89.7557   52.4690   94.1671 C.3      11        0    0.0000
     68 C          89.4709   53.0614   92.7825 C.3      11        0    0.0000
     69 H          90.8286   52.2680   94.2768 H        11        0    0.0000
     70 H          89.2420   51.5059   94.2771 H        11        0    0.0000
     71 H          88.3985   53.2653   92.6740 H        11        0    0.0000
     72 H          89.9873   54.0229   92.6713 H        11        0    0.0000
     73 C          89.9238   52.1077   91.6237 C.3      12        0    0.0000
     74 C          89.6443   52.7026   90.2391 C.3      12        0    0.0000
     75 H          90.9954   51.9005   91.7347 H        12        0    0.0000
     76 H          89.4043   51.1476   91.7324 H        12        0    0.0000
     77 H          88.5725   52.9087   90.1276 H        12        0    0.0000
     78 H          90.1627   53.6634   90.1309 H        12        0    0.0000
     79 C          90.0989   51.7498   89.0803 C.3      13        0    0.0000
     80 C          89.8195   52.3448   87.6957 C.3      13        0    0.0000
     81 H          91.1706   51.5436   89.1919 H        13        0    0.0000
     82 H          89.5803   50.7891   89.1884 H        13        0    0.0000
     83 H          88.7477   52.5500   87.5837 H        13        0    0.0000
     84 H          90.3372   53.3061   87.5880 H        13        0    0.0000
     85 C          90.2756   51.3927   86.5369 C.3      14        0    0.0000
     86 C          90.0016   51.9902   85.1524 C.3      14        0    0.0000
     87 H          91.3465   51.1841   86.6514 H        14        0    0.0000
     88 H          89.7547   50.4329   86.6421 H        14        0    0.0000
     89 H          88.9219   52.1148   85.0033 H        14        0    0.0000
     90 H          90.4471   52.9901   85.0794 H        14        0    0.0000
     91 C          90.5716   51.0975   83.9966 C.3      15        0    0.0000
     92 C          90.3012   51.6971   82.6123 C.3      15        0    0.0000
     93 H          91.6508   50.9706   84.1473 H        15        0    0.0000
     94 H          90.1239   50.0985   84.0679 H        15        0    0.0000
     95 H          89.3589   52.2588   82.6231 H        15        0    0.0000
     96 H          91.0912   52.4122   82.3513 H        15        0    0.0000
     97 C          90.2230   50.6005   81.4948 C.3      16        0    0.0000
     98 C          89.8818   51.1925   80.1229 C.3      16        0    0.0000
     99 H          91.1841   50.0735   81.4486 H        16        0    0.0000
    100 H          89.4693   49.8566   81.7816 H        16        0    0.0000
    101 H          90.1113   52.2651   80.1084 H        16        0    0.0000
    102 H          90.5026   50.7269   79.3474 H        16        0    0.0000
    103 C          88.3724   50.9937   79.7488 C.3      17        0    0.0000
    104 C          88.1033   51.2536   78.2626 C.3      17        0    0.0000
    105 H          88.0747   49.9711   80.0118 H        17        0    0.0000
    106 H          87.7638   51.6673   80.3648 H        17        0    0.0000
    107 H          87.7358   52.2774   78.1202 H        17        0    0.0000
    108 H          89.0363   51.1715   77.6913 H        17        0    0.0000
    109 C          87.0552   50.2528   77.6647 C.3      18        0    0.0000
    110 C          86.9413   50.3725   76.1410 C.3      18        0    0.0000
    111 H          87.3440   49.2312   77.9413 H        18        0    0.0000
    112 H          86.0802   50.4416   78.1308 H        18        0    0.0000
    113 H          86.0417   49.8524   75.7890 H        18        0    0.0000
    114 H          86.8292   51.4253   75.8537 H        18        0    0.0000
    115 C          88.1901   49.7776   75.4033 C.3      19        0    0.0000
    116 C          88.0551   49.8543   73.8786 C.3      19        0    0.0000
    117 H          89.0855   50.3210   75.7295 H        19        0    0.0000
    118 H          88.3226   48.7348   75.7173 H        19        0    0.0000
    119 H          87.1952   49.2594   73.5467 H        19        0    0.0000
    120 H          87.8605   50.8888   73.5697 H        19        0    0.0000
    121 C          89.3398   49.3402   73.1418 C.3      20        0    0.0000
    122 C          89.2223   49.4589   71.6183 C.3      20        0    0.0000
    123 H          90.2049   49.9131   73.4982 H        20        0    0.0000
    124 H          89.5156   48.2951   73.4253 H        20        0    0.0000
    125 H          88.3621   48.8794   71.2610 H        20        0    0.0000
    126 H          89.0383   50.5028   71.3354 H        20        0    0.0000
    127 C          90.5116   48.9557   70.8820 C.3      21        0    0.0000
    128 C          90.3610   48.9914   69.3572 C.3      21        0    0.0000
    129 H          91.3607   49.5779   71.1908 H        21        0    0.0000
    130 H          90.7324   47.9338   71.2144 H        21        0    0.0000
    131 H          89.4969   48.3891   69.0504 H        21        0    0.0000
    132 H          90.1646   50.0175   69.0225 H        21        0    0.0000
    133 C          91.6373   48.4554   68.6215 C.3      22        0    0.0000
    134 C          91.3870   48.2083   67.1297 C.3      22        0    0.0000
    135 H          92.4508   49.1798   68.7515 H        22        0    0.0000
    136 H          91.9617   47.5268   69.1073 H        22        0    0.0000
    137 H          90.4966   47.5815   66.9964 H        22        0    0.0000
    138 H          91.1827   49.1582   66.6202 H        22        0    0.0000
    139 C          92.6048   47.5116   66.4304 C.3      23        0    0.0000
    140 C          92.2431   46.9619   65.0462 C.3      23        0    0.0000
    141 H          93.4251   48.2350   66.3453 H        23        0    0.0000
    142 H          92.9658   46.7003   67.0747 H        23        0    0.0000
    143 H          91.2488   46.4991   65.0732 H        23        0    0.0000
    144 H          92.1897   47.7811   64.3184 H        23        0    0.0000
    145 C          93.2803   45.9017   64.5384 C.3      24        0    0.0000
    146 C          92.8253   45.2174   63.2447 C.3      24        0    0.0000
    147 H          94.2458   46.3985   64.3817 H        24        0    0.0000
    148 H          93.4351   45.1534   65.3255 H        24        0    0.0000
    149 H          92.7974   45.9449   62.4240 H        24        0    0.0000
    150 H          93.5464   44.4431   62.9550 H        24        0    0.0000
    151 C          91.4088   44.5609   63.3863 C.3      25        0    0.0000
    152 C          90.8363   44.1176   62.0355 C.3      25        0    0.0000
    153 H          91.4836   43.7011   64.0636 H        25        0    0.0000
    154 H          90.7319   45.2802   63.8639 H        25        0    0.0000
    155 H          91.2119   44.7682   61.2360 H        25        0    0.0000
    156 H          91.1742   43.1010   61.7991 H        25        0    0.0000
    157 C          89.2691   44.1464   62.0161 C.3      26        0    0.0000
    158 C          88.6919   43.5015   60.7512 C.3      26        0    0.0000
    159 H          88.8948   43.6276   62.9073 H        26        0    0.0000
    160 H          88.9336   45.1880   62.0938 H        26        0    0.0000
    161 H          88.9438   44.1069   59.8717 H        26        0    0.0000
    162 H          89.1426   42.5138   60.5934 H        26        0    0.0000
    163 C          87.1343   43.3402   60.8244 C.3      27        0    0.0000
    164 C          86.5883   42.4562   59.6976 C.3      27        0    0.0000
    165 H          86.8683   42.9137   61.7995 H        27        0    0.0000
    166 H          86.6733   44.3347   60.7792 H        27        0    0.0000
    167 H          86.7828   42.9241   58.7246 H        27        0    0.0000
    168 H          87.1080   41.4901   59.6921 H        27        0    0.0000
    169 C          85.0479   42.2006   59.8365 C.3      28        0    0.0000
    170 C          84.5240   41.2218   58.7798 C.3      28        0    0.0000
    171 H          84.8430   41.8134   60.8423 H        28        0    0.0000
    172 H          84.5215   43.1596   59.7548 H        28        0    0.0000
    173 H          84.7018   41.6230   57.7744 H        28        0    0.0000
    174 H          85.0713   40.2730   58.8417 H        28        0    0.0000
    175 C          82.9920   40.9331   58.9451 C.3      29        0    0.0000
    176 C          82.4714   39.9423   57.8981 C.3      29        0    0.0000
    177 H          82.8127   40.5426   59.9545 H        29        0    0.0000
    178 H          82.4438   41.8805   58.8718 H        29        0    0.0000
    179 H          82.6509   40.3328   56.8887 H        29        0    0.0000
    180 H          83.0195   38.9948   57.9715 H        29        0    0.0000
    181 C          80.9394   39.6539   58.0631 C.3      30        0    0.0000
    182 C          80.4163   38.6719   57.0090 C.3      30        0    0.0000
    183 H          80.7610   39.2555   59.0696 H        30        0    0.0000
    184 H          80.3920   40.6024   57.9981 H        30        0    0.0000
    185 H          80.6011   39.0670   56.0024 H        30        0    0.0000
    186 H          80.9589   37.7210   57.0787 H        30        0    0.0000
    187 C          78.8823   38.3911   57.1679 C.3      31        0    0.0000
    188 C          78.3621   37.3982   56.1227 C.3      31        0    0.0000
    189 H          78.6961   38.0059   58.1781 H        31        0    0.0000
    190 H          78.3388   39.3408   57.0878 H        31        0    0.0000
    191 H          78.5425   37.7863   55.1126 H        31        0    0.0000
    192 H          78.9099   36.4507   56.1986 H        31        0    0.0000
    193 C          76.8299   37.1105   56.2873 C.3      32        0    0.0000
    194 C          76.3247   36.0644   55.2876 C.3      32        0    0.0000
    195 H          76.6420   36.7716   57.3136 H        32        0    0.0000
    196 H          76.2781   38.0500   56.1597 H        32        0    0.0000
    197 H          76.4817   36.4183   54.2611 H        32        0    0.0000
    198 H          76.8995   35.1358   55.3920 H        32        0    0.0000
    199 C          74.8032   35.7415   55.4836 C.3      33        0    0.0000
    200 C          74.2821   34.7450   54.4422 C.3      33        0    0.0000
    201 H          74.6539   35.3420   56.4943 H        33        0    0.0000
    202 H          74.2331   36.6771   55.4272 H        33        0    0.0000
    203 H          74.5023   35.1082   53.4307 H        33        0    0.0000
    204 H          74.7982   33.7830   54.5508 H        33        0    0.0000
    205 C          72.7378   34.5069   54.5685 C.3      34        0    0.0000
    206 C          72.0862   34.1921   53.2174 C.3      34        0    0.0000
    207 H          72.5633   33.6828   55.2713 H        34        0    0.0000
    208 H          72.2773   35.3998   55.0093 H        34        0    0.0000
    209 H          72.6313   34.6970   52.4102 H        34        0    0.0000
    210 H          72.1458   33.1160   53.0127 H        34        0    0.0000
    211 C          70.5830   34.6339   53.1654 C.3      35        0    0.0000
    212 C          70.2114   35.2724   51.8226 C.3      35        0    0.0000
    213 H          69.9502   33.7577   53.3533 H        35        0    0.0000
    214 H          70.3936   35.3404   53.9831 H        35        0    0.0000
    215 H          71.1083   35.6767   51.3372 H        35        0    0.0000
    216 H          69.8020   34.5126   51.1453 H        35        0    0.0000
    217 C          69.1609   36.4249   51.9832 C.3      36        0    0.0000
    218 C          68.3672   36.6710   50.6953 C.3      36        0    0.0000
    219 H          68.4780   36.1691   52.8028 H        36        0    0.0000
    220 H          69.6842   37.3411   52.2834 H        36        0    0.0000
    221 H          69.0047   37.1598   49.9482 H        36        0    0.0000
    222 H          68.0490   35.7151   50.2611 H        36        0    0.0000
    223 C          67.1005   37.5617   50.9392 C.3      37        0    0.0000
    224 C          65.8747   37.0501   50.1746 C.3      37        0    0.0000
    225 H          66.8886   37.5881   52.0153 H        37        0    0.0000
    226 H          67.3290   38.5915   50.6378 H        37        0    0.0000
    227 H          65.8539   37.4807   49.1657 H        37        0    0.0000
    228 H          65.9355   35.9617   50.0514 H        37        0    0.0000
    229 C          64.5313   37.4020   50.9019 C.3      38        0    0.0000
    230 C          63.3196   36.7413   50.2353 C.3      38        0    0.0000
    231 H          64.6031   37.0856   51.9498 H        38        0    0.0000
    232 H          64.4084   38.4922   50.9096 H        38        0    0.0000
    233 H          63.1997   37.1201   49.2127 H        38        0    0.0000
    234 H          63.4788   35.6590   50.1537 H        38        0    0.0000
    235 C          61.9919   36.9984   51.0282 C.3      39        0    0.0000
    236 C          60.7907   36.2865   50.3960 C.3      39        0    0.0000
    237 H          62.1271   36.6609   52.0633 H        39        0    0.0000
    238 H          61.8090   38.0792   51.0706 H        39        0    0.0000
    239 H          60.3844   35.5432   51.0931 H        39        0    0.0000
    240 H          59.9870   37.0070   50.2000 H        39        0    0.0000
    241 C          61.1646   35.5688   49.0534 C.3      40        0    0.0000
    242 C          60.0347   34.6683   48.5420 C.3      40        0    0.0000
    243 H          61.4087   36.3297   48.3018 H        40        0    0.0000
    244 H          62.0752   34.9775   49.2103 H        40        0    0.0000
    245 H          59.6691   34.0263   49.3529 H        40        0    0.0000
    246 H          59.1842   35.2801   48.2166 H        40        0    0.0000
    247 C          60.4919   33.7622   47.3472 C.3      41        0    0.0000
    248 C          59.3577   32.8732   46.8254 C.3      41        0    0.0000
    249 H          60.8684   34.4037   46.5408 H        41        0    0.0000
    250 H          61.3349   33.1421   47.6761 H        41        0    0.0000
    251 H          58.9727   32.2407   47.6349 H        41        0    0.0000
    252 H          58.5196   33.4938   46.4848 H        41        0    0.0000
    253 C          59.8194   31.9544   45.6422 C.3      42        0    0.0000
    254 C          58.6929   31.0451   45.1390 C.3      42        0    0.0000
    255 H          60.1852   32.5878   44.8245 H        42        0    0.0000
    256 H          60.6708   31.3486   45.9764 H        42        0    0.0000
    257 H          57.9363   31.6399   44.6124 H        42        0    0.0000
    258 H          59.0877   30.3235   44.4131 H        42        0    0.0000
    259 C          57.9974   30.2604   46.3044 C.3      43        0    0.0000
    260 C          56.7174   29.5532   45.8457 C.3      43        0    0.0000
    261 H          58.7067   29.5286   46.7105 H        43        0    0.0000
    262 H          57.7692   30.9621   47.1163 H        43        0    0.0000
    263 H          56.6733   28.5425   46.2702 H        43        0    0.0000
    264 H          55.8366   30.0903   46.2188 H        43        0    0.0000
    265 C          56.6226   29.4500   44.2844 C.3      44        0    0.0000
    266 C          55.3312   28.7642   43.8249 C.3      44        0    0.0000
    267 H          56.6844   30.4593   43.8589 H        44        0    0.0000
    268 H          57.4946   28.8976   43.9129 H        44        0    0.0000
    269 H          54.4768   29.4377   43.9663 H        44        0    0.0000
    270 H          55.3840   28.5433   42.7516 H        44        0    0.0000
    271 C          55.0576   27.4308   44.6025 C.3      45        0    0.0000
    272 C          53.7414   26.7704   44.1777 C.3      45        0    0.0000
    273 H          55.8955   26.7436   44.4318 H        45        0    0.0000
    274 H          55.0406   27.6459   45.6781 H        45        0    0.0000
    275 H          53.6847   25.7515   44.5804 H        45        0    0.0000
    276 H          52.8910   27.3225   44.5968 H        45        0    0.0000
    277 C          53.5842   26.7072   42.6193 C.3      46        0    0.0000
    278 C          52.2302   26.1278   42.1951 C.3      46        0    0.0000
    279 H          53.7056   27.7180   42.2104 H        46        0    0.0000
    280 H          54.3992   26.1002   42.2060 H        46        0    0.0000
    281 H          51.4426   26.8811   42.3211 H        46        0    0.0000
    282 H          52.2496   25.8676   41.1295 H        46        0    0.0000
    283 C          51.8454   24.8515   43.0199 C.3      47        0    0.0000
    284 C          50.5009   24.2603   42.5818 C.3      47        0    0.0000
    285 H          52.6401   24.1039   42.9060 H        47        0    0.0000
    286 H          51.8113   25.1154   44.0843 H        47        0    0.0000
    287 H          50.3385   23.2919   43.0711 H        47        0    0.0000
    288 H          49.6804   24.9154   42.8997 H        47        0    0.0000
    289 C          50.4168   24.0623   41.0290 C.3      48        0    0.0000
    290 C          49.0857   23.4392   40.5942 C.3      48        0    0.0000
    291 H          50.5542   25.0349   40.5405 H        48        0    0.0000
    292 H          51.2519   23.4276   40.7077 H        48        0    0.0000
    293 H          48.5900   24.0856   39.8594 H        48        0    0.0000
    294 H          49.2649   22.4775   40.0976 H        48        0    0.0000
    295 C          48.1139   23.2104   41.8028 C.3      49        0    0.0000
    296 C          46.8814   22.3886   41.4096 C.3      49        0    0.0000
    297 H          48.6626   22.7044   42.6068 H        49        0    0.0000
    298 H          47.8051   24.1861   42.1978 H        49        0    0.0000
    299 H          46.3494   22.8794   40.5852 H        49        0    0.0000
    300 H          47.1888   21.4014   41.0428 H        49        0    0.0000
    301 C          45.8889   22.1959   42.6077 C.3      50        0    0.0000
    302 C          44.6248   21.4323   42.1977 C.3      50        0    0.0000
    303 H          46.4068   21.6610   43.4134 H        50        0    0.0000
    304 H          45.6201   23.1820   43.0062 H        50        0    0.0000
    305 H          44.1121   21.9623   41.3854 H        50        0    0.0000
    306 H          44.8930   20.4425   41.8081 H        50        0    0.0000
    307 C          43.6262   21.2515   43.3925 C.3      51        0    0.0000
    308 C          42.3986   20.4207   43.0028 C.3      51        0    0.0000
    309 H          44.1551   20.7730   44.2261 H        51        0    0.0000
    310 H          43.3135   22.2422   43.7450 H        51        0    0.0000
    311 H          41.8353   20.9304   42.2113 H        51        0    0.0000
    312 H          42.7139   19.4535   42.5923 H        51        0    0.0000
    313 C          41.4431   20.1661   44.2192 C.3      52        0    0.0000
    314 C          40.2533   19.2747   43.8466 C.3      52        0    0.0000
    315 H          42.0192   19.7046   45.0308 H        52        0    0.0000
    316 H          41.0858   21.1322   44.5965 H        52        0    0.0000
    317 H          40.2966   18.3345   44.4102 H        52        0    0.0000
    318 H          39.3131   19.7663   44.1258 H        52        0    0.0000
    319 C          40.2153   18.9443   42.3147 C.3      53        0    0.0000
    320 C          39.1194   17.9313   41.9660 C.3      53        0    0.0000
    321 H          40.0586   19.8754   41.7559 H        53        0    0.0000
    322 H          41.1960   18.5567   42.0121 H        53        0    0.0000
    323 H          39.0825   17.1406   42.7256 H        53        0    0.0000
    324 H          38.1379   18.4214   41.9734 H        53        0    0.0000
    325 C          39.3445   17.2724   40.5614 C.3      54        0    0.0000
    326 C          38.2345   16.2787   40.2014 C.3      54        0    0.0000
    327 H          39.4005   18.0643   39.8043 H        54        0    0.0000
    328 H          40.3176   16.7660   40.5602 H        54        0    0.0000
    329 H          38.3456   15.9517   39.1601 H        54        0    0.0000
    330 H          38.3179   15.3796   40.8245 H        54        0    0.0000
    331 C          36.8041   16.8923   40.3885 C.3      55        0    0.0000
    332 C          35.6949   15.8588   40.1639 C.3      55        0    0.0000
    333 H          36.7287   17.3115   41.3995 H        55        0    0.0000
    334 H          36.6847   17.7300   39.6903 H        55        0    0.0000
    335 H          35.5651   15.2448   41.0638 H        55        0    0.0000
    336 H          34.7382   16.3660   39.9880 H        55        0    0.0000
    337 C          35.9981   14.9163   38.9485 C.3      56        0    0.0000
    338 C          34.9357   13.8244   38.7810 C.3      56        0    0.0000
    339 H          36.0604   15.5236   38.0370 H        56        0    0.0000
    340 H          36.9860   14.4611   39.0919 H        56        0    0.0000
    341 H          34.5602   13.8199   37.7502 H        56        0    0.0000
    342 H          35.3797   12.8371   38.9588 H        56        0    0.0000
    343 C          33.7257   14.0178   39.7587 C.3      57        0    0.0000
    344 C          32.4797   13.2525   39.2994 C.3      57        0    0.0000
    345 H          34.0238   13.6845   40.7605 H        57        0    0.0000
    346 H          33.5018   15.0889   39.8367 H        57        0    0.0000
    347 H          32.3816   13.3136   38.2085 H        57        0    0.0000
    348 H          32.5790   12.1885   39.5477 H        57        0    0.0000
    349 C          31.1678   13.8043   39.9565 C.3      58        0    0.0000
    350 C          29.9207   13.0456   39.4894 C.3      58        0    0.0000
    351 H          31.2629   13.7363   41.0473 H        58        0    0.0000
    352 H          31.0723   14.8701   39.7145 H        58        0    0.0000
    353 H          29.8878   13.0146   38.3933 H        58        0    0.0000
    354 H          29.9631   12.0045   39.8329 H        58        0    0.0000
    355 C          28.5963   13.6980   40.0165 C.3      59        0    0.0000
    356 C          27.3496   12.9335   39.5576 C.3      59        0    0.0000
    357 H          28.6323   13.7356   41.1123 H        59        0    0.0000
    358 H          28.5504   14.7368   39.6669 H        59        0    0.0000
    359 H          26.7705   12.6012   40.4281 H        59        0    0.0000
    360 H          26.6947   13.5955   38.9776 H        59        0    0.0000
    361 C          27.7080   11.6836   38.6820 C.3      60        0    0.0000
    362 C          26.4692   11.0506   38.0387 C.3      60        0    0.0000
    363 H          28.4208   11.9882   37.9057 H        60        0    0.0000
    364 H          28.2230   10.9471   39.3111 H        60        0    0.0000
    365 H          25.7753   10.7077   38.8162 H        60        0    0.0000
    366 H          25.9308   11.7984   37.4434 H        60        0    0.0000
    367 C          26.8336    9.8369   37.1158 C.3      61        0    0.0000
    368 C          25.5935    9.1939   36.4851 C.3      61        0    0.0000
    369 H          27.5183   10.1823   36.3314 H        61        0    0.0000
    370 H          27.3822    9.0943   37.7084 H        61        0    0.0000
    371 H          24.9011    8.8635   37.2693 H        61        0    0.0000
    372 H          25.0539    9.9323   35.8792 H        61        0    0.0000
    373 C          25.9559    7.9658   35.5808 C.3      62        0    0.0000
    374 C          24.7159    7.3234   34.9494 C.3      62        0    0.0000
    375 H          26.6488    8.2961   34.7970 H        62        0    0.0000
    376 H          26.4949    7.2272   36.1870 H        62        0    0.0000
    377 H          24.0211    6.9968   35.7330 H        62        0    0.0000
    378 H          24.1792    8.0610   34.3399 H        62        0    0.0000
    379 C          25.0778    6.0918   34.0496 C.3      63        0    0.0000
    380 C          23.8378    5.4496   33.4179 C.3      63        0    0.0000
    381 H          25.7728    6.4183   33.2661 H        63        0    0.0000
    382 H          25.6143    5.3541   34.6591 H        63        0    0.0000
    383 H          23.1719    5.0670   34.2013 H        63        0    0.0000
    384 H          23.2675    6.2022   32.8595 H        63        0    0.0000
    385 C          24.2062    4.2734   32.4491 C.3      64        0    0.0000
    386 C          22.9646    3.6065   31.8469 C.3      64        0    0.0000
    387 H          24.8496    4.6619   31.6500 H        64        0    0.0000
    388 H          24.8003    3.5341   33.0005 H        64        0    0.0000
    389 H          22.3159    3.2277   32.6464 H        64        0    0.0000
    390 H          22.3762    4.3435   31.2864 H        64        0    0.0000
    391 C          23.3325    2.4205   30.8901 C.3      65        0    0.0000
    392 C          22.6010    2.5100   29.5462 C.3      65        0    0.0000
    393 H          24.4175    2.4200   30.7284 H        65        0    0.0000
    394 H          23.0879    1.4746   31.3892 H        65        0    0.0000
    395 H          22.5903    1.5278   29.0576 H        65        0    0.0000
    396 H          21.5534    2.7935   29.7063 H        65        0    0.0000
    397 C          23.2633    3.5492   28.5773 C.3      66        0    0.0000
    398 C          23.3463    3.0302   27.1376 C.3      66        0    0.0000
    399 H          22.6846    4.4806   28.6086 H        66        0    0.0000
    400 H          24.2672    3.7893   28.9490 H        66        0    0.0000
    401 H          22.5900    2.2525   26.9739 H        66        0    0.0000
    402 H          23.1229    3.8402   26.4323 H        66        0    0.0000
    403 C          24.7588    2.4406   26.7991 C.3      67        0    0.0000
    404 C          25.3502    3.0465   25.5216 C.3      67        0    0.0000
    405 H          25.4303    2.6221   27.6474 H        67        0    0.0000
    406 H          24.6716    1.3521   26.6937 H        67        0    0.0000
    407 H          25.8331    2.2643   24.9228 H        67        0    0.0000
    408 H          24.5507    3.4699   24.9010 H        67        0    0.0000
    409 C          26.4006    4.1693   25.8276 C.3      68        0    0.0000
    410 C          27.7578    3.8890   25.1731 C.3      68        0    0.0000
    411 H          26.0043    5.1297   25.4755 H        68        0    0.0000
    412 H          26.5182    4.2566   26.9149 H        68        0    0.0000
    413 H          27.6371    3.1778   24.3466 H        68        0    0.0000
    414 H          28.1634    4.8111   24.7386 H        68        0    0.0000
    415 C          28.7997    3.3090   26.1907 C.3      69        0    0.0000
    416 C          30.0246    4.2166   26.3487 C.3      69        0    0.0000
    417 H          28.3068    3.1701   27.1609 H        69        0    0.0000
    418 H          29.1105    2.3136   25.8499 H        69        0    0.0000
    419 H          30.9399    3.6124   26.3725 H        69        0    0.0000
    420 H          30.1111    4.8856   25.4835 H        69        0    0.0000
    421 C          29.9573    5.0836   27.6530 C.3      70        0    0.0000
    422 C          31.2472    4.9957   28.4761 C.3      70        0    0.0000
    423 H          29.7589    6.1261   27.3749 H        70        0    0.0000
    424 H          29.1032    4.7503   28.2555 H        70        0    0.0000
    425 H          31.7214    4.0174   28.3289 H        70        0    0.0000
    426 H          31.9659    5.7492   28.1308 H        70        0    0.0000
    427 C          30.9901    5.2072   30.0079 C.3      71        0    0.0000
    428 C          32.2318    5.7303   30.7385 C.3      71        0    0.0000
    429 H          30.1565    5.9093   30.1329 H        71        0    0.0000
    430 H          30.6685    4.2549   30.4473 H        71        0    0.0000
    431 H          33.0007    4.9489   30.7803 H        71        0    0.0000
    432 H          32.6673    6.5715   30.1852 H        71        0    0.0000
    433 C          31.9083    6.1994   32.1989 C.3      72        0    0.0000
    434 C          33.1373    6.7777   32.9089 C.3      72        0    0.0000
    435 H          31.1085    6.9495   32.1603 H        72        0    0.0000
    436 H          31.5134    5.3467   32.7649 H        72        0    0.0000
    437 H          33.9138    6.0085   33.0033 H        72        0    0.0000
    438 H          33.5694    7.5899   32.3113 H        72        0    0.0000
    439 C          32.7947    7.3277   34.3364 C.3      73        0    0.0000
    440 C          34.0119    7.9555   35.0245 C.3      73        0    0.0000
    441 H          31.9901    8.0680   34.2464 H        73        0    0.0000
    442 H          32.3999    6.5059   34.9466 H        73        0    0.0000
    443 H          33.7066    8.4401   35.9602 H        73        0    0.0000
    444 H          34.7348    7.1758   35.2948 H        73        0    0.0000
    445 C          34.7268    9.0148   34.1167 C.3      74        0    0.0000
    446 C          36.0786    9.4537   34.6904 C.3      74        0    0.0000
    447 H          34.8639    8.5876   33.1155 H        74        0    0.0000
    448 H          34.0674    9.8838   34.0008 H        74        0    0.0000
    449 H          36.5607   10.1688   34.0124 H        74        0    0.0000
    450 H          35.9310    9.9746   35.6446 H        74        0    0.0000
    451 C          37.0477    8.2431   34.9202 C.3      75        0    0.0000
    452 C          38.3645    8.6700   35.5782 C.3      75        0    0.0000
    453 H          36.5399    7.4972   35.5442 H        75        0    0.0000
    454 H          37.2481    7.7624   33.9547 H        75        0    0.0000
    455 H          38.4487    8.2225   36.5763 H        75        0    0.0000
    456 H          39.2150    8.2981   34.9935 H        75        0    0.0000
    457 C          38.4849   10.2273   35.7108 C.3      76        0    0.0000
    458 C          39.8132   10.6554   36.3443 C.3      76        0    0.0000
    459 H          38.3811   10.6761   34.7151 H        76        0    0.0000
    460 H          37.6450   10.5970   36.3120 H        76        0    0.0000
    461 H          39.6484   11.4918   37.0348 H        76        0    0.0000
    462 H          40.2285    9.8327   36.9394 H        76        0    0.0000
    463 C          40.8713   11.0871   35.2712 C.3      77        0    0.0000
    464 C          42.1834   11.5600   35.9067 C.3      77        0    0.0000
    465 H          41.0619   10.2393   34.6015 H        77        0    0.0000
    466 H          40.4430   11.8863   34.6537 H        77        0    0.0000
    467 H          42.7140   10.7091   36.3517 H        77        0    0.0000
    468 H          42.8453   11.9765   35.1373 H        77        0    0.0000
    469 C          41.9501   12.6450   37.0138 C.3      78        0    0.0000
    470 C          43.2176   12.9255   37.8285 C.3      78        0    0.0000
    471 H          41.5982   13.5677   36.5361 H        78        0    0.0000
    472 H          41.1442   12.3063   37.6766 H        78        0    0.0000
    473 H          43.3006   13.9992   38.0375 H        78        0    0.0000
    474 H          43.1601   12.4190   38.8000 H        78        0    0.0000
    475 C          44.5163   12.4529   37.0884 C.3      79        0    0.0000
    476 C          45.7918   12.8907   37.8167 C.3      79        0    0.0000
    477 H          44.4924   11.3601   36.9954 H        79        0    0.0000
    478 H          44.5084   12.8562   36.0682 H        79        0    0.0000
    479 H          45.8655   12.3811   38.7854 H        79        0    0.0000
    480 H          46.6756   12.5958   37.2376 H        79        0    0.0000
    481 C          45.8378   14.4393   38.0556 C.3      80        0    0.0000
    482 C          47.1406   14.8847   38.7290 C.3      80        0    0.0000
    483 H          45.7190   14.9495   37.0917 H        80        0    0.0000
    484 H          44.9778   14.7276   38.6727 H        80        0    0.0000
    485 H          47.1894   15.9801   38.7661 H        80        0    0.0000
    486 H          47.1666   14.5328   39.7677 H        80        0    0.0000
    487 C          48.4095   14.3474   37.9815 C.3      81        0    0.0000
    488 C          49.7044   14.6523   38.7426 C.3      81        0    0.0000
    489 H          48.3035   13.2650   37.8380 H        81        0    0.0000
    490 H          48.4468   14.7957   36.9809 H        81        0    0.0000
    491 H          50.1149   13.7297   39.1713 H        81        0    0.0000
    492 H          50.4627   15.0438   38.0531 H        81        0    0.0000
    493 C          49.4853   15.6914   39.8956 C.3      82        0    0.0000
    494 C          50.8073   16.1664   40.5086 C.3      82        0    0.0000
    495 H          48.9258   16.5475   39.4986 H        82        0    0.0000
    496 H          48.8551   15.2343   40.6686 H        82        0    0.0000
    497 H          51.0186   17.1963   40.1955 H        82        0    0.0000
    498 H          50.7314   16.1791   41.6030 H        82        0    0.0000
    499 C          52.0145   15.2552   40.0964 C.3      83        0    0.0000
    500 C          53.3527   15.7952   40.6127 C.3      83        0    0.0000
    501 H          51.8424   14.2434   40.4841 H        83        0    0.0000
    502 H          52.0386   15.1736   39.0026 H        83        0    0.0000
    503 H          53.3906   15.7230   41.7067 H        83        0    0.0000
    504 H          54.1786   15.1842   40.2278 H        83        0    0.0000
    505 C          53.5916   17.2876   40.1962 C.3      84        0    0.0000
    506 C          54.8346   17.8853   40.8645 C.3      84        0    0.0000
    507 H          53.6899   17.3387   39.1048 H        84        0    0.0000
    508 H          52.7034   17.8749   40.4604 H        84        0    0.0000
    509 H          55.4012   18.4824   40.1392 H        84        0    0.0000
    510 H          54.5371   18.5676   41.6703 H        84        0    0.0000
    511 C          55.7780   16.7830   41.4582 C.3      85        0    0.0000
    512 C          57.0614   17.3747   42.0512 C.3      85        0    0.0000
    513 H          55.2299   16.2257   42.2280 H        85        0    0.0000
    514 H          56.0256   16.0654   40.6661 H        85        0    0.0000
    515 H          57.2056   17.0095   43.0756 H        85        0    0.0000
    516 H          57.9317   17.0413   41.4725 H        85        0    0.0000
    517 C          57.0386   18.9420   42.0721 C.3      86        0    0.0000
    518 C          58.3991   19.5377   42.4507 C.3      86        0    0.0000
    519 H          56.7314   19.3044   41.0832 H        86        0    0.0000
    520 H          56.2714   19.2751   42.7820 H        86        0    0.0000
    521 H          58.8779   19.9747   41.5656 H        86        0    0.0000
    522 H          58.2649   20.3538   43.1715 H        86        0    0.0000
    523 C          59.3637   18.4690   43.0712 C.3      87        0    0.0000
    524 C          60.7359   19.0569   43.4179 C.3      87        0    0.0000
    525 H          58.8957   18.0502   43.9707 H        87        0    0.0000
    526 H          59.4778   17.6409   42.3608 H        87        0    0.0000
    527 H          61.3097   18.3424   44.0211 H        87        0    0.0000
    528 H          61.3133   19.2305   42.5014 H        87        0    0.0000
    529 C          60.6218   20.4069   44.2066 C.3      88        0    0.0000
    530 C          61.9461   21.1780   44.2328 C.3      88        0    0.0000
    531 H          59.8382   21.0207   43.7454 H        88        0    0.0000
    532 H          60.2916   20.1915   45.2304 H        88        0    0.0000
    533 H          61.9293   21.9800   43.4845 H        88        0    0.0000
    534 H          62.0812   21.6605   45.2088 H        88        0    0.0000
    535 C          63.1790   20.2511   43.9525 C.3      89        0    0.0000
    536 C          64.5099   21.0000   44.0815 C.3      89        0    0.0000
    537 H          63.1530   19.4068   44.6526 H        89        0    0.0000
    538 H          63.0814   19.8281   42.9450 H        89        0    0.0000
    539 H          65.3475   20.2993   43.9766 H        89        0    0.0000
    540 H          64.6091   21.7331   43.2714 H        89        0    0.0000
    541 C          64.6425   21.7438   45.4550 C.3      90        0    0.0000
    542 C          65.8917   22.6296   45.5178 C.3      90        0    0.0000
    543 H          63.7428   22.3504   45.6169 H        90        0    0.0000
    544 H          64.6690   20.9986   46.2596 H        90        0    0.0000
    545 H          65.6877   23.6013   45.0513 H        90        0    0.0000
    546 H          66.1576   22.8314   46.5628 H        90        0    0.0000
    547 C          67.1218   21.9734   44.8011 C.3      91        0    0.0000
    548 C          68.4008   22.8013   44.9678 C.3      91        0    0.0000
    549 H          67.2710   20.9651   45.2068 H        91        0    0.0000
    550 H          66.8878   21.8531   43.7361 H        91        0    0.0000
    551 H          69.1219   22.2582   45.5911 H        91        0    0.0000
    552 H          68.8796   22.9543   43.9927 H        91        0    0.0000
    553 C          68.1225   24.1999   45.6190 C.3      92        0    0.0000
    554 C          69.4152   24.9485   45.9619 C.3      92        0    0.0000
    555 H          67.5141   24.7968   44.9283 H        92        0    0.0000
    556 H          67.5203   24.0548   46.5244 H        92        0    0.0000
    557 H          69.9568   25.2044   45.0429 H        92        0    0.0000
    558 H          69.1798   25.8956   46.4630 H        92        0    0.0000
    559 C          70.3605   24.1082   46.8882 C.3      93        0    0.0000
    560 C          71.7022   24.8065   47.1354 C.3      93        0    0.0000
    561 H          69.8500   23.9256   47.8419 H        93        0    0.0000
    562 H          70.5265   23.1268   46.4268 H        93        0    0.0000
    563 H          71.9198   24.8335   48.2104 H        93        0    0.0000
    564 H          72.5141   24.2390   46.6639 H        93        0    0.0000
    565 C          71.7207   26.2720   46.5792 C.3      94        0    0.0000
    566 C          73.0572   26.9754   46.8398 C.3      94        0    0.0000
    567 H          71.5141   26.2440   45.5021 H        94        0    0.0000
    568 H          70.9019   26.8364   47.0425 H        94        0    0.0000
    569 H          73.0983   27.9219   46.2866 H        94        0    0.0000
    570 H          73.1482   27.2281   47.9035 H        94        0    0.0000
    571 C          74.2841   26.0930   46.4233 C.3      95        0    0.0000
    572 C          75.6093   26.6551   46.9497 C.3      95        0    0.0000
    573 H          74.1313   25.0742   46.8006 H        95        0    0.0000
    574 H          74.3137   26.0225   45.3289 H        95        0    0.0000
    575 H          75.4349   27.2350   47.8645 H        95        0    0.0000
    576 H          76.2848   25.8343   47.2210 H        95        0    0.0000
    577 C          76.3249   27.5721   45.8988 C.3      96        0    0.0000
    578 C          77.7223   28.0019   46.3590 C.3      96        0    0.0000
    579 H          76.3921   27.0324   44.9461 H        96        0    0.0000
    580 H          75.7004   28.4556   45.7171 H        96        0    0.0000
    581 H          77.6458   28.8449   47.0568 H        96        0    0.0000
    582 H          78.2066   27.1833   46.9057 H        96        0    0.0000
    583 C          78.6401   28.4207   45.1592 C.3      97        0    0.0000
    584 C          80.0271   28.8804   45.6218 C.3      97        0    0.0000
    585 H          78.7353   27.5701   44.4729 H        97        0    0.0000
    586 H          78.1453   29.2237   44.5989 H        97        0    0.0000
    587 H          80.5312   28.0696   46.1622 H        97        0    0.0000
    588 H          80.6540   29.1174   44.7532 H        97        0    0.0000
    589 C          79.9559   30.1400   46.5523 C.3      98        0    0.0000
    590 C          81.3456   30.6319   46.9713 C.3      98        0    0.0000
    591 H          79.4171   30.9380   46.0265 H        98        0    0.0000
    592 H          79.3616   29.8906   47.4401 H        98        0    0.0000
    593 H          81.5159   31.6468   46.5911 H        98        0    0.0000
    594 H          81.4100   30.6903   48.0649 H        98        0    0.0000
    595 C          82.4898   29.6973   46.4470 C.3      99        0    0.0000
    596 C          83.8833   30.2568   46.7538 C.3      99        0    0.0000
    597 H          82.3736   28.7062   46.9029 H        99        0    0.0000
    598 H          82.3684   29.5626   45.3650 H        99        0    0.0000
    599 H          84.6366   29.4654   46.6547 H        99        0    0.0000
    600 H          84.1453   31.0341   46.0254 H        99        0    0.0000
    601 C          83.9753   30.8641   48.1961 C.3     100        0    0.0000
    602 C          85.3372   31.5127   48.4674 C.3     100        0    0.0000
    603 H          83.1749   31.6041   48.3199 H       100        0    0.0000
    604 H          83.7850   30.0689   48.9275 H       100        0    0.0000
    605 H          85.2186   32.5953   48.5997 H       100        0    0.0000
    606 H          85.7586   31.1252   49.4033 H       100        0    0.0000
    607 C          86.3598   31.2545   47.3077 C.3     101        0    0.0000
    608 C          87.7418   31.8444   47.6097 C.3     101        0    0.0000
    609 H          86.4406   30.1730   47.1417 H       101        0    0.0000
    610 H          85.9606   31.6863   46.3815 H       101        0    0.0000
    611 H          87.7789   32.8951   47.2962 H       101        0    0.0000
    612 H          87.9283   31.8314   48.6907 H       101        0    0.0000
    613 C          88.8926   31.0611   46.8889 C.3     102        0    0.0000
    614 C          90.2801   31.5975   47.2581 C.3     102        0    0.0000
    615 H          88.8172   29.9992   47.1535 H       102        0    0.0000
    616 H          88.7401   31.1272   45.8045 H       102        0    0.0000
    617 H          90.9121   31.6535   46.3631 H       102        0    0.0000
    618 H          90.1966   32.6190   47.6493 H       102        0    0.0000
    619 C          90.9972   30.7037   48.3279 C.3     103        0    0.0000
    620 C          92.4629   31.1035   48.5305 C.3     103        0    0.0000
    621 H          90.4516   30.7811   49.2765 H       103        0    0.0000
    622 H          90.9335   29.6549   48.0125 H       103        0    0.0000
    623 H          92.9439   31.2742   47.5595 H       103        0    0.0000
    624 H          92.5218   32.0500   49.0820 H       103        0    0.0000
    625 C          93.2737   30.0124   49.3113 C.3     104        0    0.0000
    626 C          94.7276   30.4322   49.5541 C.3     104        0    0.0000
    627 H          92.7737   29.8174   50.2681 H       104        0    0.0000
    628 H          93.2429   29.0746   48.7428 H       104        0    0.0000
    629 H          95.2549   30.5330   48.5974 H       104        0    0.0000
    630 H          94.7593   31.4170   50.0365 H       104        0    0.0000
    631 C          95.5006   29.4050   50.4513 C.3     105        0    0.0000
    632 C          96.9501   29.8326   50.7070 C.3     105        0    0.0000
    633 H          94.9671   29.2956   51.4036 H       105        0    0.0000
    634 H          95.4788   28.4227   49.9633 H       105        0    0.0000
    635 H          97.5017   29.8775   49.7598 H       105        0    0.0000
    636 H          96.9744   30.8429   51.1339 H       105        0    0.0000
    637 C          97.6951   28.8549   51.6798 C.3     106        0    0.0000
    638 C          99.1423   29.2866   51.9413 C.3     106        0    0.0000
    639 H          97.1405   28.8058   52.6251 H       106        0    0.0000
    640 H          97.6754   27.8456   51.2502 H       106        0    0.0000
    641 H          99.5323   29.8382   51.0770 H       106        0    0.0000
    642 H          99.1815   29.9724   52.7966 H       106        0    0.0000
    643 C         100.0835   28.0663   52.2286 C.3     107        0    0.0000
    644 C         101.5452   28.4902   52.4096 C.3     107        0    0.0000
    645 H          99.7276   27.5493   53.1284 H       107        0    0.0000
    646 H          99.9989   27.3518   51.4005 H       107        0    0.0000
    647 H         101.5992   29.5567   52.6614 H       107        0    0.0000
    648 H         101.9937   27.9452   53.2494 H       107        0    0.0000
    649 C         102.4027   28.2308   51.1232 C.3     108        0    0.0000
    650 C         103.9062   28.3598   51.3915 C.3     108        0    0.0000
    651 H         102.1734   27.2281   50.7417 H       108        0    0.0000
    652 H         102.0971   28.9413   50.3453 H       108        0    0.0000
    653 H         104.2099   29.4123   51.3326 H       108        0    0.0000
    654 H         104.1370   28.0218   52.4094 H       108        0    0.0000
    655 C         104.7643   27.5287   50.3765 C.3     109        0    0.0000
    656 C         106.2685   27.6728   50.6330 C.3     109        0    0.0000
    657 H         104.4704   26.4740   50.4455 H       109        0    0.0000
    658 H         104.5233   27.8569   49.3578 H       109        0    0.0000
    659 H         106.6920   28.4358   49.9681 H       109        0    0.0000
    660 H         106.4437   28.0173   51.6597 H       109        0    0.0000
    661 C         107.0404   26.3263   50.4131 C.3     110        0    0.0000
    662 C         108.5296   26.4481   50.7543 C.3     110        0    0.0000
    663 H         106.5756   25.5474   51.0303 H       110        0    0.0000
    664 H         106.9181   26.0151   49.3683 H       110        0    0.0000
    665 H         109.0114   25.4644   50.6923 H       110        0    0.0000
    666 H         109.0320   27.0917   50.0215 H       110        0    0.0000
    667 C         108.7644   27.0362   52.1883 C.3     111        0    0.0000
    668 C         110.2387   27.3662   52.4466 C.3     111        0    0.0000
    669 H         108.1510   27.9382   52.3054 H       111        0    0.0000
    670 H         108.4053   26.3125   52.9305 H       111        0    0.0000
    671 H         110.7695   27.4874   51.4942 H       111        0    0.0000
    672 H         110.3227   28.3223   52.9779 H       111        0    0.0000
    673 C         110.9575   26.2557   53.2879 C.3     112        0    0.0000
    674 C         112.4202   26.6059   53.5826 C.3     112        0    0.0000
    675 H         110.4084   26.1125   54.2268 H       112        0    0.0000
    676 H         110.9007   25.3060   52.7417 H       112        0    0.0000
    677 H         112.5766   26.6876   54.6654 H       112        0    0.0000
    678 H         113.0780   25.8022   53.2291 H       112        0    0.0000
    679 C         112.8571   27.9508   52.9060 C.3     113        0    0.0000
    680 C         114.3203   28.3002   53.1996 C.3     113        0    0.0000
    681 H         112.6998   27.8694   51.8234 H       113        0    0.0000
    682 H         112.2000   28.7547   53.2603 H       113        0    0.0000
    683 H         114.4139   29.3701   53.4234 H       113        0    0.0000
    684 H         114.6644   27.7607   54.0907 H       113        0    0.0000
    685 C         115.2669   27.9501   52.0001 C.3     114        0    0.0000
    686 C         116.7170   28.3713   52.2625 C.3     114        0    0.0000
    687 H         115.2167   26.8702   51.8136 H       114        0    0.0000
    688 H         114.8895   28.4439   51.0961 H       114        0    0.0000
    689 H         117.1539   27.7451   53.0503 H       114        0    0.0000
    690 H         117.3234   28.2133   51.3620 H       114        0    0.0000
    691 C         116.8307   29.8749   52.6909 C.3     115        0    0.0000
    692 C         118.2389   30.2356   53.1767 C.3     115        0    0.0000
    693 H         116.5535   30.5074   51.8384 H       115        0    0.0000
    694 H         116.0974   30.0736   53.4822 H       115        0    0.0000
    695 H         118.5486   31.1981   52.7511 H       115        0    0.0000
    696 H         118.2408   30.3580   54.2670 H       115        0    0.0000
    697 C         119.2982   29.1471   52.7886 C.3     116        0    0.0000
    698 C         120.6844   29.4538   53.3660 C.3     116        0    0.0000
    699 H         118.9493   28.1706   53.1467 H       116        0    0.0000
    700 H         119.3525   29.0807   51.6949 H       116        0    0.0000
    701 H         120.7164   29.1870   54.4296 H       116        0    0.0000
    702 H         121.4445   28.8418   52.8647 H       116        0    0.0000
    703 C         121.0709   30.9653   53.2123 C.3     117        0    0.0000
    704 C         122.3932   31.3007   53.9110 C.3     117        0    0.0000
    705 H         121.1381   31.2063   52.1442 H       117        0    0.0000
    706 H         120.2613   31.5808   53.6238 H       117        0    0.0000
    707 H         123.0444   31.8655   53.2325 H       117        0    0.0000
    708 H         122.2071   31.9457   54.7787 H       117        0    0.0000
    709 C         123.1544   30.0167   54.3898 C.3     118        0    0.0000
    710 C         124.5454   30.3398   54.9464 C.3     118        0    0.0000
    711 H         122.5510   29.5125   55.1548 H       118        0    0.0000
    712 H         123.2392   29.3206   53.5462 H       118        0    0.0000
    713 H         124.6938   29.8309   55.9069 H       118        0    0.0000
    714 H         125.3195   29.9622   54.2669 H       118        0    0.0000
    715 C         124.7604   31.8790   55.1516 C.3     119        0    0.0000
    716 C         126.2008   32.2160   55.5526 C.3     119        0    0.0000
    717 H         124.4969   32.3998   54.2227 H       119        0    0.0000
    718 H         124.0630   32.2341   55.9205 H       119        0    0.0000
    719 H         126.3278   33.3036   55.6200 H       119        0    0.0000
    720 H         126.4185   31.8111   56.5487 H       119        0    0.0000
    721 C         127.2492   31.6469   54.5356 C.3     120        0    0.0000
    722 C         128.6921   31.9057   54.9829 C.3     120        0    0.0000
    723 H         127.0792   30.5694   54.4183 H       120        0    0.0000
    724 H         127.0724   32.1025   53.5534 H       120        0    0.0000
    725 H         128.9708   31.2038   55.7787 H       120        0    0.0000
    726 H         129.3822   31.7268   54.1491 H       120        0    0.0000
    727 C         128.8989   33.3693   55.5048 C.3     121        0    0.0000
    728 C         130.2708   33.5641   56.1598 C.3     121        0    0.0000
    729 H         128.7812   34.0644   54.6643 H       121        0    0.0000
    730 H         128.1028   33.6047   56.2221 H       121        0    0.0000
    731 H         130.6417   34.5774   55.9617 H       121        0    0.0000
    732 H         130.1847   33.4674   57.2491 H       121        0    0.0000
    733 C         131.3283   32.5289   55.6426 C.3     122        0    0.0000
    734 C         132.7292   32.8009   56.2019 C.3     122        0    0.0000
    735 H         131.0012   31.5197   55.9221 H       122        0    0.0000
    736 H         131.3482   32.5613   54.5462 H       122        0    0.0000
    737 H         132.7460   32.6120   57.2824 H       122        0    0.0000
    738 H         133.4546   32.1129   55.7504 H       122        0    0.0000
    739 C         133.1981   34.2735   55.9390 C.3     123        0    0.0000
    740 C         134.5115   34.6019   56.6576 C.3     123        0    0.0000
    741 H         133.3139   34.4201   54.8580 H       123        0    0.0000
    742 H         132.4079   34.9601   56.2672 H       123        0    0.0000
    743 H         135.1971   35.1153   55.9721 H       123        0    0.0000
    744 H         134.3228   35.2915   57.4896 H       123        0    0.0000
    745 C         135.2204   33.3196   57.2149 C.3     124        0    0.0000
    746 C         136.5671   33.6400   57.8729 C.3     124        0    0.0000
    747 H         134.5543   32.8336   57.9386 H       124        0    0.0000
    748 H         135.3637   32.6087   56.3918 H       124        0    0.0000
    749 H         136.4073   34.1933   58.8067 H       124        0    0.0000
    750 H         137.0849   32.7110   58.1418 H       124        0    0.0000
    751 C         137.4990   34.4854   56.9378 C.3     125        0    0.0000
    752 C         138.8259   34.8477   57.6139 C.3     125        0    0.0000
    753 H         137.6880   33.9165   56.0191 H       125        0    0.0000
    754 H         136.9673   35.3976   56.6398 H       125        0    0.0000
    755 H         139.5277   35.2508   56.8733 H       125        0    0.0000
    756 H         138.6655   35.6373   58.3584 H       125        0    0.0000
    757 C         139.4890   33.6150   58.3197 C.3     126        0    0.0000
    758 C         140.6484   34.0240   59.2350 C.3     126        0    0.0000
    759 H         138.7226   33.0840   58.8979 H       126        0    0.0000
    760 H         139.8443   32.9167   57.5518 H       126        0    0.0000
    761 H         140.3316   33.9831   60.2845 H       126        0    0.0000
    762 H         141.4793   33.3156   59.1289 H       126        0    0.0000
    763 C         141.1721   35.4678   58.9212 C.3     127        0    0.0000
    764 C         142.3989   35.8363   59.7627 C.3     127        0    0.0000
    765 H         141.4156   35.5313   57.8533 H       127        0    0.0000
    766 H         140.3621   36.1850   59.1028 H       127        0    0.0000
    767 H         142.1073   35.9783   60.8107 H       127        0    0.0000
    768 H         143.1265   35.0154   59.7466 H       127        0    0.0000
    769 C         143.0993   37.1424   59.2517 C.3     128        0    0.0000
    770 C         144.3022   37.5332   60.1174 C.3     128        0    0.0000
    771 H         143.4172   36.9899   58.2128 H       128        0    0.0000
    772 H         142.3641   37.9565   59.2399 H       128        0    0.0000
    773 H         144.0117   37.5599   61.1749 H       128        0    0.0000
    774 H         145.0923   36.7775   60.0267 H       128        0    0.0000
    775 C         144.8914   38.9304   59.7198 C.3     129        0    0.0000
    776 C         146.0825   39.3297   60.5978 C.3     129        0    0.0000
    777 H         145.1947   38.8994   58.6659 H       129        0    0.0000
    778 H         144.0978   39.6839   59.7971 H       129        0    0.0000
    779 H         145.7835   39.3449   61.6532 H       129        0    0.0000
    780 H         146.8827   38.5846   60.5078 H       129        0    0.0000
    781 C         146.6573   40.7371   60.2152 C.3     130        0    0.0000
    782 C         146.8661   41.6322   61.4416 C.3     130        0    0.0000
    783 H         147.6073   40.5987   59.6843 H       130        0    0.0000
    784 H         145.9697   41.2200   59.5098 H       130        0    0.0000
    785 H         146.1774   41.3383   62.2434 H       130        0    0.0000
    786 H         147.8818   41.5007   61.8348 H       130        0    0.0000
    787 C         146.6433   43.1491   61.1149 C.3     131        0    0.0000
    788 C         145.7615   43.8445   62.1579 C.3     131        0    0.0000
    789 H         147.6199   43.6455   61.0569 H       131        0    0.0000
    790 H         146.1875   43.2334   60.1206 H       131        0    0.0000
    791 H         145.1741   43.1005   62.7101 H       131        0    0.0000
    792 H         146.3878   44.3618   62.8953 H       131        0    0.0000
    793 C         144.7816   44.8827   61.5102 C.3     132        0    0.0000
    794 C         143.3874   44.8400   62.1454 C.3     132        0    0.0000
    795 H         145.2114   45.8867   61.6135 H       132        0    0.0000
    796 H         144.7113   44.6792   60.4345 H       132        0    0.0000
    797 H         143.0448   43.8013   62.2312 H       132        0    0.0000
    798 H         143.4257   45.2443   63.1645 H       132        0    0.0000
    799 C         142.3327   45.6533   61.3186 C.3     133        0    0.0000
    800 C         141.1601   46.1305   62.1825 C.3     133        0    0.0000
    801 H         142.8330   46.5128   60.8554 H       133        0    0.0000
    802 H         141.9643   45.0239   60.4990 H       133        0    0.0000
    803 H         140.4509   45.3088   62.3412 H       133        0    0.0000
    804 H         141.5212   46.4310   63.1739 H       133        0    0.0000
    805 C         140.3980   47.3378   61.5351 C.3     134        0    0.0000
    806 C         139.2854   47.8758   62.4416 C.3     134        0    0.0000
    807 H         141.1198   48.1335   61.3128 H       134        0    0.0000
    808 H         139.9777   47.0163   60.5741 H       134        0    0.0000
    809 H         138.8205   48.7577   61.9837 H       134        0    0.0000
    810 H         138.4939   47.1242   62.5523 H       134        0    0.0000
    811 C         139.8149   48.2653   63.8648 C.3     135        0    0.0000
    812 C         138.7025   48.8041   64.7710 C.3     135        0    0.0000
    813 H         140.2791   47.3832   64.3230 H       135        0    0.0000
    814 H         140.6068   49.0164   63.7541 H       135        0    0.0000
    815 H         137.9707   48.0136   64.9790 H       135        0    0.0000
    816 H         139.1201   49.1092   65.7385 H       135        0    0.0000
    817 C         137.9574   50.0274   64.1339 C.3     136        0    0.0000
    818 C         136.9172   50.6325   65.0830 C.3     136        0    0.0000
    819 H         138.6986   50.7866   63.8548 H       136        0    0.0000
    820 H         137.4742   49.7021   63.2043 H       136        0    0.0000
    821 H         136.4890   51.5411   64.6419 H       136        0    0.0000
    822 H         136.0864   49.9307   65.2274 H       136        0    0.0000
    823 C         137.5264   50.9891   66.4827 C.3     137        0    0.0000
    824 C         136.4500   51.3732   67.5039 C.3     137        0    0.0000
    825 H         138.1014   50.1290   66.8477 H       137        0    0.0000
    826 H         138.2386   51.8143   66.3586 H       137        0    0.0000
    827 H         135.4742   50.9858   67.1856 H       137        0    0.0000
    828 H         136.6706   50.9119   68.4745 H       137        0    0.0000
    829 C         136.3395   52.9251   67.6955 C.3     138        0    0.0000
    830 C         135.2935   53.3074   68.7486 C.3     138        0    0.0000
    831 H         137.3231   53.3169   67.9827 H       138        0    0.0000
    832 H         136.0872   53.3834   66.7312 H       138        0    0.0000
    833 H         134.4438   52.6149   68.7035 H       138        0    0.0000
    834 H         135.7216   53.2157   69.7545 H       138        0    0.0000
    835 C         134.7640   54.7703   68.5562 C.3     139        0    0.0000
    836 C         133.7981   55.1895   69.6699 C.3     139        0    0.0000
    837 H         135.6205   55.4550   68.5237 H       139        0    0.0000
    838 H         134.2669   54.8410   67.5808 H       139        0    0.0000
    839 H         132.7610   55.0472   69.3417 H       139        0    0.0000
    840 H         133.9400   54.5513   70.5509 H       139        0    0.0000
    841 C         133.9932   56.6862   70.0934 C.3     140        0    0.0000
    842 C         133.1290   57.0656   71.3009 C.3     140        0    0.0000
    843 H         135.0531   56.8537   70.3219 H       140        0    0.0000
    844 H         133.7495   57.3300   69.2392 H       140        0    0.0000
    845 H         132.0878   57.2111   70.9875 H       140        0    0.0000
    846 H         133.1262   56.2486   72.0331 H       140        0    0.0000
    847 C         133.6323   58.3729   72.0045 C.3     141        0    0.0000
    848 C         133.0138   58.5596   73.3943 C.3     141        0    0.0000
    849 H         134.7260   58.3344   72.0815 H       141        0    0.0000
    850 H         133.3915   59.2327   71.3670 H       141        0    0.0000
    851 H         131.9349   58.7370   73.3052 H       141        0    0.0000
    852 H         133.1346   57.6437   73.9859 H       141        0    0.0000
    853 C         133.6596   59.7551   74.1762 C.3     142        0    0.0000
    854 C         133.8442   59.4430   75.6654 C.3     142        0    0.0000
    855 H         134.6277   59.9947   73.7193 H       142        0    0.0000
    856 H         133.0252   60.6417   74.0535 H       142        0    0.0000
    857 H         132.8680   59.3969   76.1639 H       142        0    0.0000
    858 H         134.3077   58.4563   75.7883 H       142        0    0.0000
    859 C         134.7319   60.5122   76.3908 C.3     143        0    0.0000
    860 C         134.0897   61.0172   77.6876 C.3     143        0    0.0000
    861 H         135.7134   60.0710   76.6041 H       143        0    0.0000
    862 H         134.9059   61.3511   75.7056 H       143        0    0.0000
    863 H         133.0274   61.2349   77.5213 H       143        0    0.0000
    864 H         134.1347   60.2376   78.4581 H       143        0    0.0000
    865 C         134.7906   62.3086   78.2339 C.3     144        0    0.0000
    866 C         134.9017   62.3066   79.7626 C.3     144        0    0.0000
    867 H         135.7883   62.3866   77.7844 H       144        0    0.0000
    868 H         134.2246   63.1867   77.8991 H       144        0    0.0000
    869 H         133.9096   62.4378   80.2120 H       144        0    0.0000
    870 H         135.2798   61.3375   80.1110 H       144        0    0.0000
    871 C         135.8493   63.4382   80.2908 C.3     145        0    0.0000
    872 C         135.1405   64.3782   81.2723 C.3     145        0    0.0000
    873 H         136.7180   62.9748   80.7746 H       145        0    0.0000
    874 H         136.2319   64.0074   79.4346 H       145        0    0.0000
    875 H         134.0659   64.4094   81.0537 H       145        0    0.0000
    876 H         135.2428   63.9991   82.2967 H       145        0    0.0000
    877 C         135.7106   65.8373   81.2142 C.3     146        0    0.0000
    878 C         136.7380   66.1040   82.3199 C.3     146        0    0.0000
    879 H         136.1667   65.9999   80.2298 H       146        0    0.0000
    880 H         134.8772   66.5461   81.2963 H       146        0    0.0000
    881 H         136.2555   66.6034   83.1692 H       146        0    0.0000
    882 H         137.1382   65.1552   82.6983 H       146        0    0.0000
    883 C         137.9297   66.9923   81.8219 C.3     147        0    0.0000
    884 C         138.6067   67.7518   82.9681 C.3     147        0    0.0000
    885 H         138.6599   66.3512   81.3125 H       147        0    0.0000
    886 H         137.5543   67.6996   81.0720 H       147        0    0.0000
    887 H         137.8553   68.2934   83.5560 H       147        0    0.0000
    888 H         139.0925   67.0452   83.6524 H       147        0    0.0000
    889 C         139.6779   68.7737   82.4528 C.3     148        0    0.0000
    890 C         140.3463   69.5419   83.5983 C.3     148        0    0.0000
    891 H         140.4342   68.2307   81.8724 H       148        0    0.0000
    892 H         139.1940   69.4749   81.7616 H       148        0    0.0000
    893 H         141.4322   69.3884   83.5710 H       148        0    0.0000
    894 H         140.1773   70.6192   83.4778 H       148        0    0.0000
    895 C         139.8087   69.1001   85.0030 C.3     149        0    0.0000
    896 C         140.5523   69.7891   86.1525 C.3     149        0    0.0000
    897 H         138.7368   69.3271   85.0589 H       149        0    0.0000
    898 H         139.9050   68.0109   85.0920 H       149        0    0.0000
    899 H         141.6276   69.5838   86.0815 H       149        0    0.0000
    900 H         140.4338   70.8772   86.0786 H       149        0    0.0000
    901 C         140.0400   69.3194   87.5577 C.3     150        0    0.0000
    902 C         140.7861   70.0058   88.7071 C.3     150        0    0.0000
    903 H         138.9652   69.5271   87.6297 H       150        0    0.0000
    904 H         140.1562   68.2309   87.6306 H       150        0    0.0000
    905 H         141.8613   69.8011   88.6330 H       150        0    0.0000
    906 H         140.6669   71.0940   88.6362 H       150        0    0.0000
    907 C         140.2773   69.5322   90.1123 C.3     151        0    0.0000
    908 C         141.0170   70.2255   91.2617 C.3     151        0    0.0000
    909 H         139.2007   69.7307   90.1838 H       151        0    0.0000
    910 H         140.4027   68.4449   90.1858 H       151        0    0.0000
    911 H         142.0934   70.0257   91.1910 H       151        0    0.0000
    912 H         140.8929   71.3129   91.1874 H       151        0    0.0000
    913 C         140.5068   69.7535   92.6669 C.3     152        0    0.0000
    914 C         141.2544   70.4382   93.8163 C.3     152        0    0.0000
    915 H         139.4320   69.9610   92.7408 H       152        0    0.0000
    916 H         140.6231   68.6650   92.7380 H       152        0    0.0000
    917 H         142.3293   70.2318   93.7417 H       152        0    0.0000
    918 H         141.1371   71.5267   93.7459 H       152        0    0.0000
    919 C         140.7454   69.9650   95.2215 C.3     153        0    0.0000
    920 C         141.4844   70.6590   96.3709 C.3     153        0    0.0000
    921 H         139.6687   70.1629   95.2926 H       153        0    0.0000
    922 H         140.8714   68.8777   95.2954 H       153        0    0.0000
    923 H         142.5609   70.4600   96.3006 H       153        0    0.0000
    924 H         141.3595   71.7464   96.2962 H       153        0    0.0000
    925 C         140.9740   70.1872   97.7761 C.3     154        0    0.0000
    926 C         141.7210   70.8727   98.9255 C.3     154        0    0.0000
    927 H         139.8992   70.3940   97.8497 H       154        0    0.0000
    928 H         141.0910   69.0987   97.8476 H       154        0    0.0000
    929 H         142.7961   70.6671   98.8511 H       154        0    0.0000
    930 H         141.6028   71.9610   98.8549 H       154        0    0.0000
    931 C         141.2121   70.3993  100.3307 C.3     155        0    0.0000
    932 C         141.9495   71.0950  101.4801 C.3     155        0    0.0000
    933 H         140.1350   70.5956  100.4012 H       155        0    0.0000
    934 H         141.3396   69.3122  100.4052 H       155        0    0.0000
    935 H         143.0262   70.8965  101.4110 H       155        0    0.0000
    936 H         141.8241   72.1822  101.4042 H       155        0    0.0000
    937 C         141.4381   70.6243  102.8853 C.3     156        0    0.0000
    938 C         142.2487   71.2360  104.0332 C.3     156        0    0.0000
    939 H         140.3799   70.8958  102.9856 H       156        0    0.0000
    940 H         141.4881   69.5293  102.9312 H       156        0    0.0000
    941 H         143.3086   70.9735  103.9268 H       156        0    0.0000
    942 H         142.1898   72.3307  103.9938 H       156        0    0.0000
    943 C         141.7472   70.7532  105.4378 C.3     157        0    0.0000
    944 C         141.7820   71.8733  106.4834 C.3     157        0    0.0000
    945 H         140.7258   70.3664  105.3348 H       157        0    0.0000
    946 H         142.3709   69.9126  105.7662 H       157        0    0.0000
    947 H         142.8204   72.1515  106.7023 H       157        0    0.0000
    948 H         141.2916   72.7718  106.0887 H       157        0    0.0000
    949 C         141.0771   71.4594  107.8211 C.3     158        0    0.0000
    950 C         141.9947   71.6272  109.0372 C.3     158        0    0.0000
    951 H         140.1719   72.0663  107.9463 H       158        0    0.0000
    952 H         140.7481   70.4161  107.7393 H       158        0    0.0000
    953 H         143.0261   71.3671  108.7689 H       158        0    0.0000
    954 H         142.0074   72.6766  109.3569 H       158        0    0.0000
    955 C         141.5471   70.7359  110.2467 C.3     159        0    0.0000
    956 C         141.6269   71.4852  111.5813 C.3     159        0    0.0000
    957 H         140.5210   70.3900  110.0703 H       159        0    0.0000
    958 H         142.1801   69.8406  110.2795 H       159        0    0.0000
    959 H         142.6755   71.6600  111.8524 H       159        0    0.0000
    960 H         141.1572   72.4722  111.4873 H       159        0    0.0000
    961 C         140.9279   70.7017  112.7453 C.3     160        0    0.0000
    962 C         141.3839   71.1846  114.1265 C.3     160        0    0.0000
    963 H         139.8413   70.8168  112.6464 H       160        0    0.0000
    964 H         141.1431   69.6321  112.6308 H       160        0    0.0000
    965 H         142.4785   71.1526  114.1937 H       160        0    0.0000
    966 H         141.0897   72.2310  114.2752 H       160        0    0.0000
    967 C         140.7809   70.3203  115.2870 C.3     161        0    0.0000
    968 C         141.1588   70.8608  116.6705 C.3     161        0    0.0000
    969 H         139.6895   70.2946  115.1785 H       161        0    0.0000
    970 H         141.1328   69.2870  115.1779 H       161        0    0.0000
    971 H         142.2497   70.8698  116.7858 H       161        0    0.0000
    972 H         140.8226   71.9001  116.7731 H       161        0    0.0000
    973 C         140.5351   70.0112  117.8310 C.3     162        0    0.0000
    974 C         140.9183   70.5479  119.2145 C.3     162        0    0.0000
    975 H         139.4438   70.0062  117.7184 H       162        0    0.0000
    976 H         140.8674   68.9710  117.7257 H       162        0    0.0000
    977 H         142.0096   70.5537  119.3267 H       162        0    0.0000
    978 H         140.5852   71.5878  119.3201 H       162        0    0.0000
    979 C         140.2955   69.6975  120.3749 C.3     163        0    0.0000
    980 C         141.3151   69.3805  121.4744 C.3     163        0    0.0000
    981 H         139.4446   70.2459  120.7978 H       163        0    0.0000
    982 H         139.8934   68.7672  119.9551 H       163        0    0.0000
    983 H         142.1263   70.1189  121.4595 H       163        0    0.0000
    984 H         140.8401   69.4543  122.4606 H       163        0    0.0000
    985 C         141.9326   67.9482  121.3169 C.3     164        0    0.0000
    986 C         142.1017   67.2372  122.6641 C.3     164        0    0.0000
    987 H         141.2870   67.3554  120.6572 H       164        0    0.0000
    988 H         142.9032   68.0351  120.8130 H       164        0    0.0000
    989 H         142.7473   67.8301  123.3239 H       164        0    0.0000
    990 H         141.1311   67.1504  123.1681 H       164        0    0.0000
    991 H         142.5311   66.2414  122.5546 H       164        0    0.0000
    992 H          89.2798   53.1887  121.7450 H         0        0    0.0000
@<TRIPOS>BOND
     1     1     2      1
     2     1     3      1
     3     1     4      1
     4     1   992      H
     5     2     5      1
     6     2     6      1
     7     2     7      1
     8     7     8      1
     9     7     9      1
    10     7    10      1
    11     8    11      1
    12     8    12      1
    13     8    13      1
    14    13    14      1
    15    13    15      1
    16    13    16      1
    17    14    17      1
    18    14    18      1
    19    14    19      1
    20    19    20      1
    21    19    21      1
    22    19    22      1
    23    20    23      1
    24    20    24      1
    25    20    25      1
    26    25    26      1
    27    25    27      1
    28    25    28      1
    29    26    29      1
    30    26    30      1
    31    26    31      1
    32    31    32      1
    33    31    33      1
    34    31    34      1
    35    32    35      1
    36    32    36      1
    37    32    37      1
    38    37    38      1
    39    37    39      1
    40    37    40      1
    41    38    41      1
    42    38    42      1
    43    38    43      1
    44    43    44      1
    45    43    45      1
    46    43    46      1
    47    44    47      1
    48    44    48      1
    49    44    49      1
    50    49    50      1
    51    49    51      1
    52    49    52      1
    53    50    53      1
    54    50    54      1
    55    50    55      1
    56    55    56      1
    57    55    57      1
    58    55    58      1
    59    56    59      1
    60    56    60      1
    61    56    61      1
    62    61    62      1
    63    61    63      1
    64    61    64      1
    65    62    65      1
    66    62    66      1
    67    62    67      1
    68    67    68      1
    69    67    69      1
    70    67    70      1
    71    68    71      1
    72    68    72      1
    73    68    73      1
    74    73    74      1
    75    73    75      1
    76    73    76      1
    77    74    77      1
    78    74    78      1
    79    74    79      1
    80    79    80      1
    81    79    81      1
    82    79    82      1
    83    80    83      1
    84    80    84      1
    85    80    85      1
    86    85    86      1
    87    85    87      1
    88    85    88      1
    89    86    89      1
    90    86    90      1
    91    86    91      1
    92    91    92      1
    93    91    93      1
    94    91    94      1
    95    92    95      1
    96    92    96      1
    97    92    97      1
    98    97    98      1
    99    97    99      1
   100    97   100      1
   101    98   101      1
   102    98   102      1
   103    98   103      1
   104   103   104      1
   105   103   105      1
   106   103   106      1
   107   104   107      1
   108   104   108      1
   109   104   109      1
   110   109   110      1
   111   109   111      1
   112   109   112      1
   113   110   113      1
   114   110   114      1
   115   110   115      1
   116   115   116      1
   117   115   117      1
   118   115   118      1
   119   116   119      1
   120   116   120      1
   121   116   121      1
   122   121   122      1
   123   121   123      1
   124   121   124      1
   125   122   125      1
   126   122   126      1
   127   122   127      1
   128   127   128      1
   129   127   129      1
   130   127   130      1
   131   128   131      1
   132   128   132      1
   133   128   133      1
   134   133   134      1
   135   133   135      1
   136   133   136      1
   137   134   137      1
   138   134   138      1
   139   134   139      1
   140   139   140      1
   141   139   141      1
   142   139   142      1
   143   140   143      1
   144   140   144      1
   145   140   145      1
   146   145   146      1
   147   145   147      1
   148   145   148      1
   149   146   149      1
   150   146   150      1
   151   146   151      1
   152   151   152      1
   153   151   153      1
   154   151   154      1
   155   152   155      1
   156   152   156      1
   157   152   157      1
   158   157   158      1
   159   157   159      1
   160   157   160      1
   161   158   161      1
   162   158   162      1
   163   158   163      1
   164   163   164      1
   165   163   165      1
   166   163   166      1
   167   164   167      1
   168   164   168      1
   169   164   169      1
   170   169   170      1
   171   169   171      1
   172   169   172      1
   173   170   173      1
   174   170   174      1
   175   170   175      1
   176   175   176      1
   177   175   177      1
   178   175   178      1
   179   176   179      1
   180   176   180      1
   181   176   181      1
   182   181   182      1
   183   181   183      1
   184   181   184      1
   185   182   185      1
   186   182   186      1
   187   182   187      1
   188   187   188      1
   189   187   189      1
   190   187   190      1
   191   188   191      1
   192   188   192      1
   193   188   193      1
   194   193   194      1
   195   193   195      1
   196   193   196      1
   197   194   197      1
   198   194   198      1
   199   194   199      1
   200   199   200      1
   201   199   201      1
   202   199   202      1
   203   200   203      1
   204   200   204      1
   205   200   205      1
   206   205   206      1
   207   205   207      1
   208   205   208      1
   209   206   209      1
   210   206   210      1
   211   206   211      1
   212   211   212      1
   213   211   213      1
   214   211   214      1
   215   212   215      1
   216   212   216      1
   217   212   217      1
   218   217   218      1
   219   217   219      1
   220   217   220      1
   221   218   221      1
   222   218   222      1
   223   218   223      1
   224   223   224      1
   225   223   225      1
   226   223   226      1
   227   224   227      1
   228   224   228      1
   229   224   229      1
   230   229   230      1
   231   229   231      1
   232   229   232      1
   233   230   233      1
   234   230   234      1
   235   230   235      1
   236   235   236      1
   237   235   237      1
   238   235   238      1
   239   236   239      1
   240   236   240      1
   241   236   241      1
   242   241   242      1
   243   241   243      1
   244   241   244      1
   245   242   245      1
   246   242   246      1
   247   242   247      1
   248   247   248      1
   249   247   249      1
   250   247   250      1
   251   248   251      1
   252   248   252      1
   253   248   253      1
   254   253   254      1
   255   253   255      1
   256   253   256      1
   257   254   257      1
   258   254   258      1
   259   254   259      1
   260   259   260      1
   261   259   261      1
   262   259   262      1
   263   260   263      1
   264   260   264      1
   265   260   265      1
   266   265   266      1
   267   265   267      1
   268   265   268      1
   269   266   269      1
   270   266   270      1
   271   266   271      1
   272   271   272      1
   273   271   273      1
   274   271   274      1
   275   272   275      1
   276   272   276      1
   277   272   277      1
   278   277   278      1
   279   277   279      1
   280   277   280      1
   281   278   281      1
   282   278   282      1
   283   278   283      1
   284   283   284      1
   285   283   285      1
   286   283   286      1
   287   284   287      1
   288   284   288      1
   289   284   289      1
   290   289   290      1
   291   289   291      1
   292   289   292      1
   293   290   293      1
   294   290   294      1
   295   290   295      1
   296   295   296      1
   297   295   297      1
   298   295   298      1
   299   296   299      1
   300   296   300      1
   301   296   301      1
   302   301   302      1
   303   301   303      1
   304   301   304      1
   305   302   305      1
   306   302   306      1
   307   302   307      1
   308   307   308      1
   309   307   309      1
   310   307   310      1
   311   308   311      1
   312   308   312      1
   313   308   313      1
   314   313   314      1
   315   313   315      1
   316   313   316      1
   317   314   317      1
   318   314   318      1
   319   314   319      1
   320   319   320      1
   321   319   321      1
   322   319   322      1
   323   320   323      1
   324   320   324      1
   325   320   325      1
   326   325   326      1
   327   325   327      1
   328   325   328      1
   329   326   329      1
   330   326   330      1
   331   326   331      1
   332   331   332      1
   333   331   333      1
   334   331   334      1
   335   332   335      1
   336   332   336      1
   337   332   337      1
   338   337   338      1
   339   337   339      1
   340   337   340      1
   341   338   341      1
   342   338   342      1
   343   338   343      1
   344   343   344      1
   345   343   345      1
   346   343   346      1
   347   344   347      1
   348   344   348      1
   349   344   349      1
   350   349   350      1
   351   349   351      1
   352   349   352      1
   353   350   353      1
   354   350   354      1
   355   350   355      1
   356   355   356      1
   357   355   357      1
   358   355   358      1
   359   356   359      1
   360   356   360      1
   361   356   361      1
   362   361   362      1
   363   361   363      1
   364   361   364      1
   365   362   365      1
   366   362   366      1
   367   362   367      1
   368   367   368      1
   369   367   369      1
   370   367   370      1
   371   368   371      1
   372   368   372      1
   373   368   373      1
   374   373   374      1
   375   373   375      1
   376   373   376      1
   377   374   377      1
   378   374   378      1
   379   374   379      1
   380   379   380      1
   381   379   381      1
   382   379   382      1
   383   380   383      1
   384   380   384      1
   385   380   385      1
   386   385   386      1
   387   385   387      1
   388   385   388      1
   389   386   389      1
   390   386   390      1
   391   386   391      1
   392   391   392      1
   393   391   393      1
   394   391   394      1
   395   392   395      1
   396   392   396      1
   397   392   397      1
   398   397   398      1
   399   397   399      1
   400   397   400      1
   401   398   401      1
   402   398   402      1
   403   398   403      1
   404   403   404      1
   405   403   405      1
   406   403   406      1
   407   404   407      1
   408   404   408      1
   409   404   409      1
   410   409   410      1
   411   409   411      1
   412   409   412      1
   413   410   413      1
   414   410   414      1
   415   410   415      1
   416   415   416      1
   417   415   417      1
   418   415   418      1
   419   416   419      1
   420   416   420      1
   421   416   421      1
   422   421   422      1
   423   421   423      1
   424   421   424      1
   425   422   425      1
   426   422   426      1
   427   422   427      1
   428   427   428      1
   429   427   429      1
   430   427   430      1
   431   428   431      1
   432   428   432      1
   433   428   433      1
   434   433   434      1
   435   433   435      1
   436   433   436      1
   437   434   437      1
   438   434   438      1
   439   434   439      1
   440   439   440      1
   441   439   441      1
   442   439   442      1
   443   440   443      1
   444   440   444      1
   445   440   445      1
   446   445   446      1
   447   445   447      1
   448   445   448      1
   449   446   449      1
   450   446   450      1
   451   446   451      1
   452   451   452      1
   453   451   453      1
   454   451   454      1
   455   452   455      1
   456   452   456      1
   457   452   457      1
   458   457   458      1
   459   457   459      1
   460   457   460      1
   461   458   461      1
   462   458   462      1
   463   458   463      1
   464   463   464      1
   465   463   465      1
   466   463   466      1
   467   464   467      1
   468   464   468      1
   469   464   469      1
   470   469   470      1
   471   469   471      1
   472   469   472      1
   473   470   473      1
   474   470   474      1
   475   470   475      1
   476   475   476      1
   477   475   477      1
   478   475   478      1
   479   476   479      1
   480   476   480      1
   481   476   481      1
   482   481   482      1
   483   481   483      1
   484   481   484      1
   485   482   485      1
   486   482   486      1
   487   482   487      1
   488   487   488      1
   489   487   489      1
   490   487   490      1
   491   488   491      1
   492   488   492      1
   493   488   493      1
   494   493   494      1
   495   493   495      1
   496   493   496      1
   497   494   497      1
   498   494   498      1
   499   494   499      1
   500   499   500      1
   501   499   501      1
   502   499   502      1
   503   500   503      1
   504   500   504      1
   505   500   505      1
   506   505   506      1
   507   505   507      1
   508   505   508      1
   509   506   509      1
   510   506   510      1
   511   506   511      1
   512   511   512      1
   513   511   513      1
   514   511   514      1
   515   512   515      1
   516   512   516      1
   517   512   517      1
   518   517   518      1
   519   517   519      1
   520   517   520      1
   521   518   521      1
   522   518   522      1
   523   518   523      1
   524   523   524      1
   525   523   525      1
   526   523   526      1
   527   524   527      1
   528   524   528      1
   529   524   529      1
   530   529   530      1
   531   529   531      1
   532   529   532      1
   533   530   533      1
   534   530   534      1
   535   530   535      1
   536   535   536      1
   537   535   537      1
   538   535   538      1
   539   536   539      1
   540   536   540      1
   541   536   541      1
   542   541   542      1
   543   541   543      1
   544   541   544      1
   545   542   545      1
   546   542   546      1
   547   542   547      1
   548   547   548      1
   549   547   549      1
   550   547   550      1
   551   548   551      1
   552   548   552      1
   553   548   553      1
   554   553   554      1
   555   553   555      1
   556   553   556      1
   557   554   557      1
   558   554   558      1
   559   554   559      1
   560   559   560      1
   561   559   561      1
   562   559   562      1
   563   560   563      1
   564   560   564      1
   565   560   565      1
   566   565   566      1
   567   565   567      1
   568   565   568      1
   569   566   569      1
   570   566   570      1
   571   566   571      1
   572   571   572      1
   573   571   573      1
   574   571   574      1
   575   572   575      1
   576   572   576      1
   577   572   577      1
   578   577   578      1
   579   577   579      1
   580   577   580      1
   581   578   581      1
   582   578   582      1
   583   578   583      1
   584   583   584      1
   585   583   585      1
   586   583   586      1
   587   584   587      1
   588   584   588      1
   589   584   589      1
   590   589   590      1
   591   589   591      1
   592   589   592      1
   593   590   593      1
   594   590   594      1
   595   590   595      1
   596   595   596      1
   597   595   597      1
   598   595   598      1
   599   596   599      1
   600   596   600      1
   601   596   601      1
   602   601   602      1
   603   601   603      1
   604   601   604      1
   605   602   605      1
   606   602   606      1
   607   602   607      1
   608   607   608      1
   609   607   609      1
   610   607   610      1
   611   608   611      1
   612   608   612      1
   613   608   613      1
   614   613   614      1
   615   613   615      1
   616   613   616      1
   617   614   617      1
   618   614   618      1
   619   614   619      1
   620   619   620      1
   621   619   621      1
   622   619   622      1
   623   620   623      1
   624   620   624      1
   625   620   625      1
   626   625   626      1
   627   625   627      1
   628   625   628      1
   629   626   629      1
   630   626   630      1
   631   626   631      1
   632   631   632      1
   633   631   633      1
   634   631   634      1
   635   632   635      1
   636   632   636      1
   637   632   637      1
   638   637   638      1
   639   637   639      1
   640   637   640      1
   641   638   641      1
   642   638   642      1
   643   638   643      1
   644   643   644      1
   645   643   645      1
   646   643   646      1
   647   644   647      1
   648   644   648      1
   649   644   649      1
   650   649   650      1
   651   649   651      1
   652   649   652      1
   653   650   653      1
   654   650   654      1
   655   650   655      1
   656   655   656      1
   657   655   657      1
   658   655   658      1
   659   656   659      1
   660   656   660      1
   661   656   661      1
   662   661   662      1
   663   661   663      1
   664   661   664      1
   665   662   665      1
   666   662   666      1
   667   662   667      1
   668   667   668      1
   669   667   669      1
   670   667   670      1
   671   668   671      1
   672   668   672      1
   673   668   673      1
   674   673   674      1
   675   673   675      1
   676   673   676      1
   677   674   677      1
   678   674   678      1
   679   674   679      1
   680   679   680      1
   681   679   681      1
   682   679   682      1
   683   680   683      1
   684   680   684      1
   685   680   685      1
   686   685   686      1
   687   685   687      1
   688   685   688      1
   689   686   689      1
   690   686   690      1
   691   686   691      1
   692   691   692      1
   693   691   693      1
   694   691   694      1
   695   692   695      1
   696   692   696      1
   697   692   697      1
   698   697   698      1
   699   697   699      1
   700   697   700      1
   701   698   701      1
   702   698   702      1
   703   698   703      1
   704   703   704      1
   705   703   705      1
   706   703   706      1
   707   704   707      1
   708   704   708      1
   709   704   709      1
   710   709   710      1
   711   709   711      1
   712   709   712      1
   713   710   713      1
   714   710   714      1
   715   710   715      1
   716   715   716      1
   717   715   717      1
   718   715   718      1
   719   716   719      1
   720   716   720      1
   721   716   721      1
   722   721   722      1
   723   721   723      1
   724   721   724      1
   725   722   725      1
   726   722   726      1
   727   722   727      1
   728   727   728      1
   729   727   729      1
   730   727   730      1
   731   728   731      1
   732   728   732      1
   733   728   733      1
   734   733   734      1
   735   733   735      1
   736   733   736      1
   737   734   737      1
   738   734   738      1
   739   734   739      1
   740   739   740      1
   741   739   741      1
   742   739   742      1
   743   740   743      1
   744   740   744      1
   745   740   745      1
   746   745   746      1
   747   745   747      1
   748   745   748      1
   749   746   749      1
   750   746   750      1
   751   746   751      1
   752   751   752      1
   753   751   753      1
   754   751   754      1
   755   752   755      1
   756   752   756      1
   757   752   757      1
   758   757   758      1
   759   757   759      1
   760   757   760      1
   761   758   761      1
   762   758   762      1
   763   758   763      1
   764   763   764      1
   765   763   765      1
   766   763   766      1
   767   764   767      1
   768   764   768      1
   769   764   769      1
   770   769   770      1
   771   769   771      1
   772   769   772      1
   773   770   773      1
   774   770   774      1
   775   770   775      1
   776   775   776      1
   777   775   777      1
   778   775   778      1
   779   776   779      1
   780   776   780      1
   781   776   781      1
   782   781   782      1
   783   781   783      1
   784   781   784      1
   785   782   785      1
   786   782   786      1
   787   782   787      1
   788   787   788      1
   789   787   789      1
   790   787   790      1
   791   788   791      1
   792   788   792      1
   793   788   793      1
   794   793   794      1
   795   793   795      1
   796   793   796      1
   797   794   797      1
   798   794   798      1
   799   794   799      1
   800   799   800      1
   801   799   801      1
   802   799   802      1
   803   800   803      1
   804   800   804      1
   805   800   805      1
   806   805   806      1
   807   805   807      1
   808   805   808      1
   809   806   809      1
   810   806   810      1
   811   806   811      1
   812   811   812      1
   813   811   813      1
   814   811   814      1
   815   812   815      1
   816   812   816      1
   817   812   817      1
   818   817   818      1
   819   817   819      1
   820   817   820      1
   821   818   821      1
   822   818   822      1
   823   818   823      1
   824   823   824      1
   825   823   825      1
   826   823   826      1
   827   824   827      1
   828   824   828      1
   829   824   829      1
   830   829   830      1
   831   829   831      1
   832   829   832      1
   833   830   833      1
   834   830   834      1
   835   830   835      1
   836   835   836      1
   837   835   837      1
   838   835   838      1
   839   836   839      1
   840   836   840      1
   841   836   841      1
   842   841   842      1
   843   841   843      1
   844   841   844      1
   845   842   845      1
   846   842   846      1
   847   842   847      1
   848   847   848      1
   849   847   849      1
   850   847   850      1
   851   848   851      1
   852   848   852      1
   853   848   853      1
   854   853   854      1
   855   853   855      1
   856   853   856      1
   857   854   857      1
   858   854   858      1
   859   854   859      1
   860   859   860      1
   861   859   861      1
   862   859   862      1
   863   860   863      1
   864   860   864      1
   865   860   865      1
   866   865   866      1
   867   865   867      1
   868   865   868      1
   869   866   869      1
   870   866   870      1
   871   866   871      1
   872   871   872      1
   873   871   873      1
   874   871   874      1
   875   872   875      1
   876   872   876      1
   877   872   877      1
   878   877   878      1
   879   877   879      1
   880   877   880      1
   881   878   881      1
   882   878   882      1
   883   878   883      1
   884   883   884      1
   885   883   885      1
   886   883   886      1
   887   884   887      1
   888   884   888      1
   889   884   889      1
   890   889   890      1
   891   889   891      1
   892   889   892      1
   893   890   893      1
   894   890   894      1
   895   890   895      1
   896   895   896      1
   897   895   897      1
   898   895   898      1
   899   896   899      1
   900   896   900      1
   901   896   901      1
   902   901   902      1
   903   901   903      1
   904   901   904      1
   905   902   905      1
   906   902   906      1
   907   902   907      1
   908   907   908      1
   909   907   909      1
   910   907   910      1
   911   908   911      1
   912   908   912      1
   913   908   913      1
   914   913   914      1
   915   913   915      1
   916   913   916      1
   917   914   917      1
   918   914   918      1
   919   914   919      1
   920   919   920      1
   921   919   921      1
   922   919   922      1
   923   920   923      1
   924   920   924      1
   925   920   925      1
   926   925   926      1
   927   925   927      1
   928   925   928      1
   929   926   929      1
   930   926   930      1
   931   926   931      1
   932   931   932      1
   933   931   933      1
   934   931   934      1
   935   932   935      1
   936   932   936      1
   937   932   937      1
   938   937   938      1
   939   937   939      1
   940   937   940      1
   941   938   941      1
   942   938   942      1
   943   938   943      1
   944   943   944      1
   945   943   945      1
   946   943   946      1
   947   944   947      1
   948   944   948      1
   949   944   949      1
   950   949   950      1
   951   949   951      1
   952   949   952      1
   953   950   953      1
   954   950   954      1
   955   950   955      1
   956   955   956      1
   957   955   957      1
   958   955   958      1
   959   956   959      1
   960   956   960      1
   961   956   961      1
   962   961   962      1
   963   961   963      1
   964   961   964      1
   965   962   965      1
   966   962   966      1
   967   962   967      1
   968   967   968      1
   969   967   969      1
   970   967   970      1
   971   968   971      1
   972   968   972      1
   973   968   973      1
   974   973   974      1
   975   973   975      1
   976   973   976      1
   977   974   977      1
   978   974   978      1
   979   974   979      1
   980   979   980      1
   981   979   981      1
   982   979   982      1
   983   980   983      1
   984   980   984      1
   985   980   985      1
   986   985   986      1
   987   985   987      1
   988   985   988      1
   989   986   989      1
   990   986   990      1
   991   986   991      H
