###
### Created by PolyChef-cpp17 on Thu Feb 27 19:40:28 2025
###

@<TRIPOS>MOLECULE
NO_INFO
296 295 1 0 0
SMALL
USER_CHARGES


@<TRIPOS>ATOM
      1 C         149.2798  157.1087  -39.3449 C.3       0        0    0.0000
      2 C         147.8706  156.9482  -38.7641 C.3       0        0    0.0000
      3 H         149.9271  156.2966  -38.9914 H         0        0    0.0000
      4 H         149.7280  158.0455  -38.9913 H         0        0    0.0000
      5 H         147.3720  157.9240  -38.7115 H         0        0    0.0000
      6 H         147.2612  156.3182  -39.4239 H         0        0    0.0000
      7 C         147.8874  156.3115  -37.3317 C.3       1        0    0.0000
      8 C         149.1654  156.6548  -36.5584 C.3       1        0    0.0000
      9 H         147.0073  156.6623  -36.7785 H         1        0    0.0000
     10 H         147.7863  155.2233  -37.4272 H         1        0    0.0000
     11 H         150.0455  156.4784  -37.1892 H         1        0    0.0000
     12 H         149.1728  157.7205  -36.2982 H         1        0    0.0000
     13 C         149.3088  155.8126  -35.2440 C.3       2        0    0.0000
     14 C         150.2039  156.5011  -34.2078 C.3       2        0    0.0000
     15 H         148.3102  155.6407  -34.8235 H         2        0    0.0000
     16 H         149.7174  154.8268  -35.4984 H         2        0    0.0000
     17 H         151.2590  156.3824  -34.4840 H         2        0    0.0000
     18 H         150.0016  157.5792  -34.1929 H         2        0    0.0000
     19 C         149.9918  155.9272  -32.7645 C.3       3        0    0.0000
     20 C         150.6165  156.8201  -31.6868 C.3       3        0    0.0000
     21 H         148.9156  155.8154  -32.5830 H         3        0    0.0000
     22 H         150.4255  154.9206  -32.7169 H         3        0    0.0000
     23 H         151.7055  156.8574  -31.8140 H         3        0    0.0000
     24 H         150.2515  157.8492  -31.7928 H         3        0    0.0000
     25 C         150.2941  156.3164  -30.2377 C.3       4        0    0.0000
     26 C         150.8903  157.2283  -29.1597 C.3       4        0    0.0000
     27 H         149.2052  156.2554  -30.1187 H         4        0    0.0000
     28 H         150.6812  155.2963  -30.1236 H         4        0    0.0000
     29 H         151.9799  157.2836  -29.2743 H         4        0    0.0000
     30 H         150.5088  158.2501  -29.2783 H         4        0    0.0000
     31 C         150.5591  156.7303  -27.7106 C.3       5        0    0.0000
     32 C         151.1612  157.6383  -26.6326 C.3       5        0    0.0000
     33 H         149.4694  156.6800  -27.5944 H         5        0    0.0000
     34 H         150.9361  155.7067  -27.5938 H         5        0    0.0000
     35 H         152.2507  157.6910  -26.7507 H         5        0    0.0000
     36 H         150.7821  158.6613  -26.7477 H         5        0    0.0000
     37 C         150.8336  157.1380  -25.1836 C.3       6        0    0.0000
     38 C         151.4111  158.0619  -24.1056 C.3       6        0    0.0000
     39 H         149.7446  157.0651  -25.0725 H         6        0    0.0000
     40 H         151.2313  156.1229  -25.0615 H         6        0    0.0000
     41 H         152.5007  158.1306  -24.2135 H         6        0    0.0000
     42 H         151.0175  159.0782  -24.2309 H         6        0    0.0000
     43 C         151.0771  157.5656  -22.6566 C.3       7        0    0.0000
     44 C         152.1427  157.9865  -21.6385 C.3       7        0    0.0000
     45 H         150.0981  157.9644  -22.3632 H         7        0    0.0000
     46 H         150.9810  156.4729  -22.6705 H         7        0    0.0000
     47 H         153.1374  157.6834  -21.9879 H         7        0    0.0000
     48 H         152.1615  159.0793  -21.5438 H         7        0    0.0000
     49 C         151.8920  157.3609  -20.2231 C.3       8        0    0.0000
     50 C         151.8717  158.4198  -19.1153 C.3       8        0    0.0000
     51 H         150.9396  156.8167  -20.2408 H         8        0    0.0000
     52 H         152.6748  156.6195  -20.0205 H         8        0    0.0000
     53 H         152.8972  158.6933  -18.8375 H         8        0    0.0000
     54 H         151.3891  159.3355  -19.4789 H         8        0    0.0000
     55 C         151.1161  157.9249  -17.8341 C.3       9        0    0.0000
     56 C         151.9895  158.0053  -16.5772 C.3       9        0    0.0000
     57 H         150.2103  158.5297  -17.7021 H         9        0    0.0000
     58 H         150.7843  156.8919  -17.9961 H         9        0    0.0000
     59 H         153.0082  157.6677  -16.8048 H         9        0    0.0000
     60 H         152.0704  159.0466  -16.2413 H         9        0    0.0000
     61 C         151.4205  157.1380  -15.4018 C.3      10        0    0.0000
     62 C         151.7298  157.7455  -14.0292 C.3      10        0    0.0000
     63 H         150.3361  157.0344  -15.5317 H        10        0    0.0000
     64 H         151.8439  156.1283  -15.4703 H        10        0    0.0000
     65 H         152.8093  157.7099  -13.8366 H        10        0    0.0000
     66 H         151.4416  158.8039  -14.0126 H        10        0    0.0000
     67 C         150.9847  157.0007  -12.8683 C.3      11        0    0.0000
     68 C         151.4405  157.4782  -11.4851 C.3      11        0    0.0000
     69 H         149.9050  157.1573  -12.9834 H        11        0    0.0000
     70 H         151.1593  155.9225  -12.9705 H        11        0    0.0000
     71 H         152.5262  157.3574  -11.3843 H        11        0    0.0000
     72 H         151.2305  158.5486  -11.3685 H        11        0    0.0000
     73 C         150.7352  156.6955  -10.3242 C.3      12        0    0.0000
     74 C         151.1826  157.1806   -8.9409 C.3      12        0    0.0000
     75 H         149.6492  156.8095  -10.4297 H        12        0    0.0000
     76 H         150.9520  155.6260  -10.4361 H        12        0    0.0000
     77 H         152.2682  157.0642   -8.8344 H        12        0    0.0000
     78 H         150.9681  158.2508   -8.8301 H        12        0    0.0000
     79 C         150.4745  156.4005   -7.7801 C.3      13        0    0.0000
     80 C         150.9296  156.8785   -6.3969 C.3      13        0    0.0000
     81 H         149.3891  156.5233   -7.8822 H        13        0    0.0000
     82 H         150.6826  155.3296   -7.8953 H        13        0    0.0000
     83 H         152.0160  156.7629   -6.2976 H        13        0    0.0000
     84 H         150.7144  157.9478   -6.2788 H        13        0    0.0000
     85 C         150.2295  156.0911   -5.2361 C.3      14        0    0.0000
     86 C         150.7252  156.5310   -3.8542 C.3      14        0    0.0000
     87 H         149.1451  156.2398   -5.3117 H        14        0    0.0000
     88 H         150.4109  155.0183   -5.3769 H        14        0    0.0000
     89 H         151.8148  156.4194   -3.7923 H        14        0    0.0000
     90 H         150.5081  157.5950   -3.6979 H        14        0    0.0000
     91 C         150.0660  155.7054   -2.6960 C.3      15        0    0.0000
     92 C         150.5067  156.1930   -1.3114 C.3      15        0    0.0000
     93 H         148.9751  155.7741   -2.7893 H        15        0    0.0000
     94 H         150.3270  154.6475   -2.8230 H        15        0    0.0000
     95 H         151.5488  155.9049   -1.1253 H        15        0    0.0000
     96 H         150.4704  157.2887   -1.2693 H        15        0    0.0000
     97 C         149.6096  155.6132   -0.1641 C.3      16        0    0.0000
     98 C         149.9345  156.2357    1.1982 C.3      16        0    0.0000
     99 H         148.5563  155.7883   -0.4161 H        16        0    0.0000
    100 H         149.7471  154.5255   -0.1230 H        16        0    0.0000
    101 H         150.9560  155.9714    1.4986 H        16        0    0.0000
    102 H         149.8995  157.3301    1.1296 H        16        0    0.0000
    103 C         148.9417  155.7676    2.3174 C.3      17        0    0.0000
    104 C         149.2150  156.4535    3.6605 C.3      17        0    0.0000
    105 H         147.9157  155.9769    1.9901 H        17        0    0.0000
    106 H         149.0212  154.6790    2.4279 H        17        0    0.0000
    107 H         150.2276  156.2121    4.0069 H        17        0    0.0000
    108 H         149.1743  157.5433    3.5414 H        17        0    0.0000
    109 C         148.1879  156.0271    4.7653 C.3      18        0    0.0000
    110 C         148.3262  156.8647    6.0413 C.3      18        0    0.0000
    111 H         147.1728  156.1232    4.3604 H        18        0    0.0000
    112 H         148.3362  154.9646    4.9948 H        18        0    0.0000
    113 H         149.3167  156.7104    6.4871 H        18        0    0.0000
    114 H         148.2521  157.9324    5.8003 H        18        0    0.0000
    115 C         147.2320  156.5100    7.1063 C.3      19        0    0.0000
    116 C         146.7951  157.7333    7.9199 C.3      19        0    0.0000
    117 H         146.3674  156.0716    6.5926 H        19        0    0.0000
    118 H         147.6273  155.7352    7.7749 H        19        0    0.0000
    119 H         147.5972  158.0358    8.6045 H        19        0    0.0000
    120 H         146.6137  158.5842    7.2516 H        19        0    0.0000
    121 C         145.4959  157.4594    8.7533 C.3      20        0    0.0000
    122 C         144.5126  158.6338    8.6989 C.3      20        0    0.0000
    123 H         145.0164  156.5494    8.3719 H        20        0    0.0000
    124 H         145.7795  157.2541    9.7930 H        20        0    0.0000
    125 H         144.7944  159.3949    9.4371 H        20        0    0.0000
    126 H         144.5580  159.1172    7.7151 H        20        0    0.0000
    127 C         143.0359  158.1854    8.9740 C.3      21        0    0.0000
    128 C         142.4369  158.8805   10.2017 C.3      21        0    0.0000
    129 H         142.4293  158.4019    8.0859 H        21        0    0.0000
    130 H         143.0165  157.0972    9.1111 H        21        0    0.0000
    131 H         143.2048  159.0054   10.9752 H        21        0    0.0000
    132 H         142.0932  159.8873    9.9336 H        21        0    0.0000
    133 C         141.2333  158.0807   10.8090 C.3      22        0    0.0000
    134 C         139.8936  158.7923   10.5904 C.3      22        0    0.0000
    135 H         141.2073  157.0822   10.3552 H        22        0    0.0000
    136 H         141.4110  157.9346   11.8817 H        22        0    0.0000
    137 H         139.6243  159.3699   11.4835 H        22        0    0.0000
    138 H         139.9791  159.5100    9.7651 H        22        0    0.0000
    139 C         138.7331  157.7886   10.2689 C.3      23        0    0.0000
    140 C         137.6278  158.4302    9.4230 C.3      23        0    0.0000
    141 H         139.1516  156.9203    9.7451 H        23        0    0.0000
    142 H         138.3161  157.4161   11.2128 H        23        0    0.0000
    143 H         137.1527  159.2464    9.9812 H        23        0    0.0000
    144 H         138.0581  158.8764    8.5178 H        23        0    0.0000
    145 C         136.5261  157.3973    9.0025 C.3      24        0    0.0000
    146 C         135.4339  158.0335    8.1357 C.3      24        0    0.0000
    147 H         137.0038  156.5720    8.4600 H        24        0    0.0000
    148 H         136.0832  156.9644    9.9081 H        24        0    0.0000
    149 H         134.9110  158.8139    8.7023 H        24        0    0.0000
    150 H         135.8839  158.5249    7.2642 H        24        0    0.0000
    151 C         134.3838  156.9820    7.6367 C.3      25        0    0.0000
    152 C         133.6107  157.4716    6.4072 C.3      25        0    0.0000
    153 H         134.9046  156.0447    7.4048 H        25        0    0.0000
    154 H         133.6877  156.7614    8.4555 H        25        0    0.0000
    155 H         132.9510  158.3033    6.6843 H        25        0    0.0000
    156 H         134.3079  157.8599    5.6545 H        25        0    0.0000
    157 C         132.7467  156.3362    5.7577 C.3      26        0    0.0000
    158 C         132.1517  156.7582    4.4097 C.3      26        0    0.0000
    159 H         133.3730  155.4446    5.6298 H        26        0    0.0000
    160 H         131.9444  156.0606    6.4533 H        26        0    0.0000
    161 H         131.4279  157.5696    4.5555 H        26        0    0.0000
    162 H         132.9405  157.1531    3.7574 H        26        0    0.0000
    163 C         131.4380  155.5700    3.6773 C.3      27        0    0.0000
    164 C         130.9176  155.9700    2.2923 C.3      27        0    0.0000
    165 H         132.1439  154.7351    3.5872 H        27        0    0.0000
    166 H         130.6093  155.2157    4.3027 H        27        0    0.0000
    167 H         129.9889  156.5456    2.3913 H        27        0    0.0000
    168 H         131.6424  156.6248    1.7928 H        27        0    0.0000
    169 C         130.6461  154.7262    1.3777 C.3      28        0    0.0000
    170 C         130.1683  155.1278   -0.0222 C.3      28        0    0.0000
    171 H         131.5660  154.1329    1.3053 H        28        0    0.0000
    172 H         129.8968  154.0878    1.8621 H        28        0    0.0000
    173 H         129.8525  154.2384   -0.5814 H        28        0    0.0000
    174 H         129.2901  155.7809    0.0531 H        28        0    0.0000
    175 C         131.2812  155.8699   -0.8396 C.3      29        0    0.0000
    176 C         130.8427  156.1713   -2.2769 C.3      29        0    0.0000
    177 H         131.5384  156.8020   -0.3214 H        29        0    0.0000
    178 H         132.1877  155.2519   -0.8446 H        29        0    0.0000
    179 H         130.0412  156.9204   -2.2764 H        29        0    0.0000
    180 H         131.6777  156.6038   -2.8421 H        29        0    0.0000
    181 C         130.3363  154.8900   -3.0247 C.3      30        0    0.0000
    182 C         129.9560  155.1795   -4.4809 C.3      30        0    0.0000
    183 H         131.1212  154.1245   -2.9859 H        30        0    0.0000
    184 H         129.4726  154.4833   -2.4841 H        30        0    0.0000
    185 H         129.7241  154.2427   -5.0025 H        30        0    0.0000
    186 H         129.0477  155.7937   -4.5175 H        30        0    0.0000
    187 C         131.0986  155.9206   -5.2572 C.3      31        0    0.0000
    188 C         130.7529  156.1345   -6.7349 C.3      31        0    0.0000
    189 H         131.2876  156.8860   -4.7715 H        31        0    0.0000
    190 H         132.0231  155.3367   -5.1679 H        31        0    0.0000
    191 H         129.9393  156.8644   -6.8291 H        31        0    0.0000
    192 H         131.6159  156.5545   -7.2662 H        31        0    0.0000
    193 C         130.3223  154.8038   -7.4430 C.3      32        0    0.0000
    194 C         129.9775  155.0175   -8.9210 C.3      32        0    0.0000
    195 H         131.1356  154.0736   -7.3483 H        32        0    0.0000
    196 H         129.4588  154.3842   -6.9122 H        32        0    0.0000
    197 H         129.8440  154.0497   -9.4199 H        32        0    0.0000
    198 H         129.0241  155.5527   -9.0113 H        32        0    0.0000
    199 C         131.0854  155.8278   -9.6783 C.3      33        0    0.0000
    200 C         130.7171  156.0857  -11.1436 C.3      33        0    0.0000
    201 H         131.2454  156.7800   -9.1575 H        33        0    0.0000
    202 H         132.0307  155.2740   -9.6200 H        33        0    0.0000
    203 H         129.9464  156.8640  -11.2063 H        33        0    0.0000
    204 H         131.5905  156.4624  -11.6903 H        33        0    0.0000
    205 C         130.1908  154.7945  -11.8600 C.3      34        0    0.0000
    206 C         129.8829  155.0369  -13.3417 C.3      34        0    0.0000
    207 H         130.9420  154.0017  -11.7567 H        34        0    0.0000
    208 H         129.2899  154.4445  -11.3410 H        34        0    0.0000
    209 H         129.6363  154.0885  -13.8348 H        34        0    0.0000
    210 H         129.0017  155.6826  -13.4421 H        34        0    0.0000
    211 C         131.0850  155.7016  -14.0972 C.3      35        0    0.0000
    212 C         130.7558  155.9996  -15.5642 C.3      35        0    0.0000
    213 H         131.3604  156.6278  -13.5779 H        35        0    0.0000
    214 H         131.9540  155.0349  -14.0347 H        35        0    0.0000
    215 H         130.0953  156.8730  -15.6315 H        35        0    0.0000
    216 H         131.6720  156.2545  -16.1110 H        35        0    0.0000
    217 C         130.0634  154.7865  -16.2759 C.3      36        0    0.0000
    218 C         129.7817  155.0653  -17.7564 C.3      36        0    0.0000
    219 H         130.7065  153.9034  -16.1751 H        36        0    0.0000
    220 H         129.1275  154.5562  -15.7518 H        36        0    0.0000
    221 H         129.4181  154.1545  -18.2482 H        36        0    0.0000
    222 H         128.9864  155.8147  -17.8534 H        36        0    0.0000
    223 C         131.0535  155.5769  -18.5170 C.3      37        0    0.0000
    224 C         130.7592  155.9061  -19.9847 C.3      37        0    0.0000
    225 H         131.4398  156.4653  -18.0023 H        37        0    0.0000
    226 H         131.8359  154.8106  -18.4530 H        37        0    0.0000
    227 H         130.2026  156.8489  -20.0544 H        37        0    0.0000
    228 H         131.6982  156.0534  -20.5327 H        37        0    0.0000
    229 C         129.9327  154.7778  -20.6925 C.3      38        0    0.0000
    230 C         129.6851  155.0817  -22.1743 C.3      38        0    0.0000
    231 H         130.4704  153.8272  -20.5882 H        38        0    0.0000
    232 H         128.9765  154.6581  -20.1682 H        38        0    0.0000
    233 H         129.2195  154.2168  -22.6629 H        38        0    0.0000
    234 H         128.9810  155.9170  -22.2744 H        38        0    0.0000
    235 C         131.0073  155.4411  -22.9359 C.3      39        0    0.0000
    236 C         130.7511  155.8125  -24.4007 C.3      39        0    0.0000
    237 H         131.4990  156.2735  -22.4173 H        39        0    0.0000
    238 H         131.6919  154.5859  -22.8789 H        39        0    0.0000
    239 H         130.3267  156.8221  -24.4641 H        39        0    0.0000
    240 H         131.6979  155.8334  -24.9546 H        39        0    0.0000
    241 C         129.7751  154.8089  -25.1061 C.3      40        0    0.0000
    242 C         129.5728  155.1405  -26.5888 C.3      40        0    0.0000
    243 H         130.1747  153.7928  -24.9991 H        40        0    0.0000
    244 H         128.8115  154.8253  -24.5821 H        40        0    0.0000
    245 H         128.9834  154.3523  -27.0735 H        40        0    0.0000
    246 H         128.9999  156.0705  -26.6914 H        40        0    0.0000
    247 C         130.9323  155.2975  -27.3534 C.3      41        0    0.0000
    248 C         130.7315  155.7010  -28.8183 C.3      41        0    0.0000
    249 H         131.5438  156.0477  -26.8370 H        41        0    0.0000
    250 H         131.4816  154.3496  -27.2962 H        41        0    0.0000
    251 H         130.4654  156.7634  -28.8827 H        41        0    0.0000
    252 H         131.6689  155.5767  -29.3746 H        41        0    0.0000
    253 C         129.6122  154.8564  -29.5191 C.3      42        0    0.0000
    254 C         129.4597  155.2111  -31.0024 C.3      42        0    0.0000
    255 H         129.8520  153.7915  -29.4097 H        42        0    0.0000
    256 H         128.6634  155.0213  -28.9935 H        42        0    0.0000
    257 H         128.7543  154.5222  -31.4833 H        42        0    0.0000
    258 H         129.0373  156.2182  -31.1068 H        42        0    0.0000
    259 C         130.8252  155.1537  -31.7703 C.3      43        0    0.0000
    260 C         130.6872  155.5876  -33.2338 C.3      43        0    0.0000
    261 H         131.5486  155.7968  -31.2539 H        43        0    0.0000
    262 H         131.2184  154.1310  -31.7166 H        43        0    0.0000
    263 H         130.6001  156.6794  -33.2958 H        43        0    0.0000
    264 H         131.5886  155.3111  -33.7946 H        43        0    0.0000
    265 C         129.4405  154.9408  -33.9302 C.3      44        0    0.0000
    266 C         129.3426  155.3178  -35.4125 C.3      44        0    0.0000
    267 H         129.5013  153.8507  -33.8225 H        44        0    0.0000
    268 H         128.5344  155.2597  -33.4003 H        44        0    0.0000
    269 H         128.5310  154.7556  -35.8908 H        44        0    0.0000
    270 H         129.0921  156.3810  -35.5145 H        44        0    0.0000
    271 C         130.6765  155.0365  -36.1865 C.3      45        0    0.0000
    272 C         130.6193  155.5234  -37.6386 C.3      45        0    0.0000
    273 H         131.5026  155.5276  -35.6573 H        45        0    0.0000
    274 H         130.8809  153.9590  -36.1588 H        45        0    0.0000
    275 H         130.7767  156.6084  -37.6780 H        45        0    0.0000
    276 H         131.4289  155.0663  -38.2208 H        45        0    0.0000
    277 C         129.2507  155.1862  -38.3248 C.3      46        0    0.0000
    278 C         129.1670  155.7338  -39.7538 C.3      46        0    0.0000
    279 H         129.1170  154.0973  -38.3307 H        46        0    0.0000
    280 H         128.4380  155.6001  -37.7151 H        46        0    0.0000
    281 H         128.9054  154.9279  -40.4507 H        46        0    0.0000
    282 H         128.3681  156.4823  -39.8236 H        46        0    0.0000
    283 C         130.5137  156.3872  -40.2195 C.3      47        0    0.0000
    284 C         130.5839  156.5513  -41.7417 C.3      47        0    0.0000
    285 H         130.6207  157.3635  -39.7306 H        47        0    0.0000
    286 H         131.3477  155.7664  -39.8693 H        47        0    0.0000
    287 H         129.7861  157.2216  -42.0850 H        47        0    0.0000
    288 H         131.5338  157.0206  -42.0261 H        47        0    0.0000
    289 C         130.4518  155.1820  -42.4936 C.3      48        0    0.0000
    290 C         130.5202  155.3463  -44.0159 C.3      48        0    0.0000
    291 H         131.2504  154.5122  -42.1513 H        48        0    0.0000
    292 H         129.5025  154.7120  -42.2081 H        48        0    0.0000
    293 H         129.7216  156.0161  -44.3581 H        48        0    0.0000
    294 H         131.4695  155.8163  -44.3013 H        48        0    0.0000
    295 H         130.4283  154.3942  -44.5386 H        48        0    0.0000
    296 H         149.2798  157.1087  -40.4349 H         0        0    0.0000
@<TRIPOS>BOND
     1     1     2      1
     2     1     3      1
     3     1     4      1
     4     1   296      H
     5     2     5      1
     6     2     6      1
     7     2     7      1
     8     7     8      1
     9     7     9      1
    10     7    10      1
    11     8    11      1
    12     8    12      1
    13     8    13      1
    14    13    14      1
    15    13    15      1
    16    13    16      1
    17    14    17      1
    18    14    18      1
    19    14    19      1
    20    19    20      1
    21    19    21      1
    22    19    22      1
    23    20    23      1
    24    20    24      1
    25    20    25      1
    26    25    26      1
    27    25    27      1
    28    25    28      1
    29    26    29      1
    30    26    30      1
    31    26    31      1
    32    31    32      1
    33    31    33      1
    34    31    34      1
    35    32    35      1
    36    32    36      1
    37    32    37      1
    38    37    38      1
    39    37    39      1
    40    37    40      1
    41    38    41      1
    42    38    42      1
    43    38    43      1
    44    43    44      1
    45    43    45      1
    46    43    46      1
    47    44    47      1
    48    44    48      1
    49    44    49      1
    50    49    50      1
    51    49    51      1
    52    49    52      1
    53    50    53      1
    54    50    54      1
    55    50    55      1
    56    55    56      1
    57    55    57      1
    58    55    58      1
    59    56    59      1
    60    56    60      1
    61    56    61      1
    62    61    62      1
    63    61    63      1
    64    61    64      1
    65    62    65      1
    66    62    66      1
    67    62    67      1
    68    67    68      1
    69    67    69      1
    70    67    70      1
    71    68    71      1
    72    68    72      1
    73    68    73      1
    74    73    74      1
    75    73    75      1
    76    73    76      1
    77    74    77      1
    78    74    78      1
    79    74    79      1
    80    79    80      1
    81    79    81      1
    82    79    82      1
    83    80    83      1
    84    80    84      1
    85    80    85      1
    86    85    86      1
    87    85    87      1
    88    85    88      1
    89    86    89      1
    90    86    90      1
    91    86    91      1
    92    91    92      1
    93    91    93      1
    94    91    94      1
    95    92    95      1
    96    92    96      1
    97    92    97      1
    98    97    98      1
    99    97    99      1
   100    97   100      1
   101    98   101      1
   102    98   102      1
   103    98   103      1
   104   103   104      1
   105   103   105      1
   106   103   106      1
   107   104   107      1
   108   104   108      1
   109   104   109      1
   110   109   110      1
   111   109   111      1
   112   109   112      1
   113   110   113      1
   114   110   114      1
   115   110   115      1
   116   115   116      1
   117   115   117      1
   118   115   118      1
   119   116   119      1
   120   116   120      1
   121   116   121      1
   122   121   122      1
   123   121   123      1
   124   121   124      1
   125   122   125      1
   126   122   126      1
   127   122   127      1
   128   127   128      1
   129   127   129      1
   130   127   130      1
   131   128   131      1
   132   128   132      1
   133   128   133      1
   134   133   134      1
   135   133   135      1
   136   133   136      1
   137   134   137      1
   138   134   138      1
   139   134   139      1
   140   139   140      1
   141   139   141      1
   142   139   142      1
   143   140   143      1
   144   140   144      1
   145   140   145      1
   146   145   146      1
   147   145   147      1
   148   145   148      1
   149   146   149      1
   150   146   150      1
   151   146   151      1
   152   151   152      1
   153   151   153      1
   154   151   154      1
   155   152   155      1
   156   152   156      1
   157   152   157      1
   158   157   158      1
   159   157   159      1
   160   157   160      1
   161   158   161      1
   162   158   162      1
   163   158   163      1
   164   163   164      1
   165   163   165      1
   166   163   166      1
   167   164   167      1
   168   164   168      1
   169   164   169      1
   170   169   170      1
   171   169   171      1
   172   169   172      1
   173   170   173      1
   174   170   174      1
   175   170   175      1
   176   175   176      1
   177   175   177      1
   178   175   178      1
   179   176   179      1
   180   176   180      1
   181   176   181      1
   182   181   182      1
   183   181   183      1
   184   181   184      1
   185   182   185      1
   186   182   186      1
   187   182   187      1
   188   187   188      1
   189   187   189      1
   190   187   190      1
   191   188   191      1
   192   188   192      1
   193   188   193      1
   194   193   194      1
   195   193   195      1
   196   193   196      1
   197   194   197      1
   198   194   198      1
   199   194   199      1
   200   199   200      1
   201   199   201      1
   202   199   202      1
   203   200   203      1
   204   200   204      1
   205   200   205      1
   206   205   206      1
   207   205   207      1
   208   205   208      1
   209   206   209      1
   210   206   210      1
   211   206   211      1
   212   211   212      1
   213   211   213      1
   214   211   214      1
   215   212   215      1
   216   212   216      1
   217   212   217      1
   218   217   218      1
   219   217   219      1
   220   217   220      1
   221   218   221      1
   222   218   222      1
   223   218   223      1
   224   223   224      1
   225   223   225      1
   226   223   226      1
   227   224   227      1
   228   224   228      1
   229   224   229      1
   230   229   230      1
   231   229   231      1
   232   229   232      1
   233   230   233      1
   234   230   234      1
   235   230   235      1
   236   235   236      1
   237   235   237      1
   238   235   238      1
   239   236   239      1
   240   236   240      1
   241   236   241      1
   242   241   242      1
   243   241   243      1
   244   241   244      1
   245   242   245      1
   246   242   246      1
   247   242   247      1
   248   247   248      1
   249   247   249      1
   250   247   250      1
   251   248   251      1
   252   248   252      1
   253   248   253      1
   254   253   254      1
   255   253   255      1
   256   253   256      1
   257   254   257      1
   258   254   258      1
   259   254   259      1
   260   259   260      1
   261   259   261      1
   262   259   262      1
   263   260   263      1
   264   260   264      1
   265   260   265      1
   266   265   266      1
   267   265   267      1
   268   265   268      1
   269   266   269      1
   270   266   270      1
   271   266   271      1
   272   271   272      1
   273   271   273      1
   274   271   274      1
   275   272   275      1
   276   272   276      1
   277   272   277      1
   278   277   278      1
   279   277   279      1
   280   277   280      1
   281   278   281      1
   282   278   282      1
   283   278   283      1
   284   283   284      1
   285   283   285      1
   286   283   286      1
   287   284   287      1
   288   284   288      1
   289   284   289      1
   290   289   290      1
   291   289   291      1
   292   289   292      1
   293   290   293      1
   294   290   294      1
   295   290   295      H
