###
### Created by PolyChef-cpp17 on Thu Feb 27 19:40:29 2025
###

@<TRIPOS>MOLECULE
NO_INFO
1820 1819 1 0 0
SMALL
USER_CHARGES


@<TRIPOS>ATOM
      1 C         129.2798   53.1887  -39.3449 C.3       0        0    0.0000
      2 C         127.8706   53.0282  -38.7641 C.3       0        0    0.0000
      3 H         129.9271   52.3766  -38.9913 H         0        0    0.0000
      4 H         129.7280   54.1255  -38.9913 H         0        0    0.0000
      5 H         127.3724   54.0041  -38.7106 H         0        0    0.0000
      6 H         127.2609   52.3990  -39.4244 H         0        0    0.0000
      7 C         127.8873   52.3903  -37.3322 C.3       1        0    0.0000
      8 C         129.1649   52.7335  -36.5583 C.3       1        0    0.0000
      9 H         127.0069   52.7401  -36.7790 H         1        0    0.0000
     10 H         127.7868   51.3021  -37.4287 H         1        0    0.0000
     11 H         130.0452   52.5583  -37.1890 H         1        0    0.0000
     12 H         129.1716   53.7989  -36.2968 H         1        0    0.0000
     13 C         129.3085   51.8899  -35.2448 C.3       2        0    0.0000
     14 C         130.2038   52.5774  -34.2080 C.3       2        0    0.0000
     15 H         128.3100   51.7175  -34.8243 H         2        0    0.0000
     16 H         129.7172   50.9044  -35.5004 H         2        0    0.0000
     17 H         131.2588   52.4588  -34.4844 H         2        0    0.0000
     18 H         130.0015   53.6555  -34.1921 H         2        0    0.0000
     19 C         129.9917   52.0021  -32.7652 C.3       3        0    0.0000
     20 C         130.6134   52.8958  -31.6864 C.3       3        0    0.0000
     21 H         128.9156   51.8878  -32.5848 H         3        0    0.0000
     22 H         130.4277   50.9965  -32.7179 H         3        0    0.0000
     23 H         131.7027   52.9334  -31.8109 H         3        0    0.0000
     24 H         130.2483   53.9247  -31.7939 H         3        0    0.0000
     25 C         130.2875   52.3927  -30.2379 C.3       4        0    0.0000
     26 C         130.8929   53.2973  -29.1589 C.3       4        0    0.0000
     27 H         129.1982   52.3415  -30.1181 H         4        0    0.0000
     28 H         130.6653   51.3689  -30.1258 H         4        0    0.0000
     29 H         131.9825   53.3465  -29.2772 H         4        0    0.0000
     30 H         130.5172   54.3217  -29.2726 H         4        0    0.0000
     31 C         130.5641   52.7963  -27.7104 C.3       5        0    0.0000
     32 C         131.1463   53.7161  -26.6314 C.3       5        0    0.0000
     33 H         129.4749   52.7279  -27.5986 H         5        0    0.0000
     34 H         130.9576   51.7793  -27.5901 H         5        0    0.0000
     35 H         132.2359   53.7813  -26.7407 H         5        0    0.0000
     36 H         130.7559   54.7339  -26.7541 H         5        0    0.0000
     37 C         130.8127   53.2181  -25.1829 C.3       6        0    0.0000
     38 C         131.4552   54.0970  -24.1041 C.3       6        0    0.0000
     39 H         129.7231   53.2032  -25.0563 H         6        0    0.0000
     40 H         131.1562   52.1815  -25.0775 H         6        0    0.0000
     41 H         132.5439   54.1200  -24.2369 H         6        0    0.0000
     42 H         131.1038   55.1315  -24.2033 H         6        0    0.0000
     43 C         131.1334   53.5906  -22.6559 C.3       7        0    0.0000
     44 C         131.0494   54.7390  -21.6443 C.3       7        0    0.0000
     45 H         130.1860   53.0378  -22.6769 H         7        0    0.0000
     46 H         131.9082   52.8764  -22.3507 H         7        0    0.0000
     47 H         132.0318   55.2144  -21.5325 H         7        0    0.0000
     48 H         130.3644   55.5137  -22.0107 H         7        0    0.0000
     49 C         130.5587   54.2556  -20.2361 C.3       8        0    0.0000
     50 C         131.5138   54.6744  -19.1130 C.3       8        0    0.0000
     51 H         129.5578   54.6646  -20.0508 H         8        0    0.0000
     52 H         130.4545   53.1636  -20.2536 H         8        0    0.0000
     53 H         132.5525   54.6162  -19.4612 H         8        0    0.0000
     54 H         131.3326   55.7202  -18.8356 H         8        0    0.0000
     55 C         131.3582   53.7787  -17.8359 C.3       9        0    0.0000
     56 C         131.1020   54.6078  -16.5726 C.3       9        0    0.0000
     57 H         130.5331   53.0737  -17.9968 H         9        0    0.0000
     58 H         132.2672   53.1770  -17.7131 H         9        0    0.0000
     59 H         132.0289   55.0981  -16.2501 H         9        0    0.0000
     60 H         130.3811   55.4066  -16.7866 H         9        0    0.0000
     61 C         130.5540   53.7359  -15.3906 C.3      10        0    0.0000
     62 C         130.9897   54.2722  -14.0226 C.3      10        0    0.0000
     63 H         129.4591   53.7057  -15.4515 H        10        0    0.0000
     64 H         130.9052   52.7046  -15.5196 H        10        0    0.0000
     65 H         132.0741   54.4383  -14.0116 H        10        0    0.0000
     66 H         130.5201   55.2454  -13.8331 H        10        0    0.0000
     67 C         130.6163   53.2951  -12.8550 C.3      11        0    0.0000
     68 C         130.8656   53.9157  -11.4760 C.3      11        0    0.0000
     69 H         129.5612   53.0117  -12.9548 H        11        0    0.0000
     70 H         131.2016   52.3737  -12.9642 H        11        0    0.0000
     71 H         131.9283   54.1630  -11.3613 H        11        0    0.0000
     72 H         130.3111   54.8575  -11.3815 H        11        0    0.0000
     73 C         130.4405   52.9597  -10.3086 C.3      12        0    0.0000
     74 C         130.7035   53.5744   -8.9295 C.3      12        0    0.0000
     75 H         129.3753   52.7210  -10.4172 H        12        0    0.0000
     76 H         130.9871   52.0139  -10.4093 H        12        0    0.0000
     77 H         131.7681   53.8168   -8.8225 H        12        0    0.0000
     78 H         130.1537   54.5182   -8.8273 H        12        0    0.0000
     79 C         130.2837   52.6161   -7.7620 C.3      13        0    0.0000
     80 C         130.5654   53.2226   -6.3829 C.3      13        0    0.0000
     81 H         129.2156   52.3856   -7.8605 H        13        0    0.0000
     82 H         130.8223   51.6669   -7.8727 H        13        0    0.0000
     83 H         131.6316   53.4634   -6.2886 H        13        0    0.0000
     84 H         130.0179   54.1663   -6.2680 H        13        0    0.0000
     85 C         130.1601   52.2578   -5.2157 C.3      14        0    0.0000
     86 C         130.5123   52.8319   -3.8389 C.3      14        0    0.0000
     87 H         129.0825   52.0617   -5.2770 H        14        0    0.0000
     88 H         130.6644   51.2946   -5.3618 H        14        0    0.0000
     89 H         131.5901   53.0270   -3.7772 H        14        0    0.0000
     90 H         130.0088   53.7956   -3.6932 H        14        0    0.0000
     91 C         130.1056   51.8678   -2.6716 C.3      15        0    0.0000
     92 C         130.2469   52.5291   -1.2962 C.3      15        0    0.0000
     93 H         129.0700   51.5411   -2.8273 H        15        0    0.0000
     94 H         130.7309   50.9678   -2.7222 H        15        0    0.0000
     95 H         131.2975   52.5194   -0.9802 H        15        0    0.0000
     96 H         129.9446   53.5822   -1.3523 H        15        0    0.0000
     97 C         129.3833   51.8132   -0.2012 C.3      16        0    0.0000
     98 C         128.7130   52.8084    0.7525 C.3      16        0    0.0000
     99 H         128.6230   51.1972   -0.6973 H        16        0    0.0000
    100 H         130.0262   51.1263    0.3630 H        16        0    0.0000
    101 H         129.3123   52.9169    1.6650 H        16        0    0.0000
    102 H         128.6648   53.8008    0.2874 H        16        0    0.0000
    103 C         127.2627   52.3656    1.1501 C.3      17        0    0.0000
    104 C         126.3407   53.5621    1.4094 C.3      17        0    0.0000
    105 H         126.8514   51.7406    0.3477 H        17        0    0.0000
    106 H         127.3189   51.7331    2.0447 H        17        0    0.0000
    107 H         126.6916   54.1249    2.2833 H        17        0    0.0000
    108 H         126.3713   54.2522    0.5572 H        17        0    0.0000
    109 C         124.8549   53.1254    1.6529 C.3      18        0    0.0000
    110 C         124.2860   53.7015    2.9542 C.3      18        0    0.0000
    111 H         124.2465   53.4505    0.7998 H        18        0    0.0000
    112 H         124.8074   52.0296    1.6742 H        18        0    0.0000
    113 H         125.0835   53.8039    3.7005 H        18        0    0.0000
    114 H         123.8886   54.7087    2.7775 H        18        0    0.0000
    115 C         123.1464   52.8063    3.5519 C.3      19        0    0.0000
    116 C         122.4783   53.4531    4.7703 C.3      19        0    0.0000
    117 H         122.4001   52.6155    2.7708 H        19        0    0.0000
    118 H         123.5697   51.8325    3.8278 H        19        0    0.0000
    119 H         123.2130   53.5909    5.5732 H        19        0    0.0000
    120 H         122.1060   54.4515    4.5092 H        19        0    0.0000
    121 C         121.2854   52.5964    5.3184 C.3      20        0    0.0000
    122 C         120.3584   53.4077    6.2303 C.3      20        0    0.0000
    123 H         120.7196   52.1939    4.4691 H        20        0    0.0000
    124 H         121.6901   51.7349    5.8640 H        20        0    0.0000
    125 H         120.8849   53.6834    7.1524 H        20        0    0.0000
    126 H         120.0730   54.3456    5.7379 H        20        0    0.0000
    127 C         119.0573   52.6190    6.6078 C.3      21        0    0.0000
    128 C         117.8798   53.5521    6.9108 C.3      21        0    0.0000
    129 H         118.8001   51.9449    5.7815 H        21        0    0.0000
    130 H         119.2682   51.9848    7.4778 H        21        0    0.0000
    131 H         118.0819   54.1294    7.8215 H        21        0    0.0000
    132 H         117.7568   54.2786    6.0980 H        21        0    0.0000
    133 C         116.5343   52.7695    7.0969 C.3      22        0    0.0000
    134 C         115.4127   53.6631    7.6380 C.3      22        0    0.0000
    135 H         116.2395   52.3386    6.1321 H        22        0    0.0000
    136 H         116.7064   51.9275    7.7787 H        22        0    0.0000
    137 H         115.7379   54.1569    8.5620 H        22        0    0.0000
    138 H         115.1858   54.4593    6.9182 H        22        0    0.0000
    139 C         114.1002   52.8574    7.9306 C.3      23        0    0.0000
    140 C         113.0010   53.7377    8.5356 C.3      23        0    0.0000
    141 H         113.7474   52.4045    6.9957 H        23        0    0.0000
    142 H         114.3372   52.0305    8.6114 H        23        0    0.0000
    143 H         113.3111   54.1011    9.5231 H        23        0    0.0000
    144 H         112.8418   54.6242    7.9093 H        23        0    0.0000
    145 C         111.6408   52.9723    8.6830 C.3      24        0    0.0000
    146 C         110.6564   53.7084    9.5986 C.3      24        0    0.0000
    147 H         111.2004   52.8388    7.6872 H        24        0    0.0000
    148 H         111.8411   51.9679    9.0762 H        24        0    0.0000
    149 H         109.6260   53.5161    9.2750 H        24        0    0.0000
    150 H         110.7406   53.3285   10.6243 H        24        0    0.0000
    151 C         110.9013   55.2568    9.6115 C.3      25        0    0.0000
    152 C         109.6692   56.0358   10.0848 C.3      25        0    0.0000
    153 H         111.7568   55.4740   10.2631 H        25        0    0.0000
    154 H         111.1847   55.5784    8.6017 H        25        0    0.0000
    155 H         108.7759   55.6864    9.5524 H        25        0    0.0000
    156 H         109.4932   55.8494   11.1515 H        25        0    0.0000
    157 C         109.8200   57.5798    9.8599 C.3      26        0    0.0000
    158 C         108.5200   58.3386   10.1484 C.3      26        0    0.0000
    159 H         110.6250   57.9541   10.5044 H        26        0    0.0000
    160 H         110.1371   57.7570    8.8247 H        26        0    0.0000
    161 H         107.7096   57.9490    9.5198 H        26        0    0.0000
    162 H         108.2148   58.1794   11.1901 H        26        0    0.0000
    163 C         108.6617   59.8787    9.8930 C.3      27        0    0.0000
    164 C         107.5238   60.6809   10.5339 C.3      27        0    0.0000
    165 H         109.6282   60.2152   10.2884 H        27        0    0.0000
    166 H         108.6847   60.0571    8.8108 H        27        0    0.0000
    167 H         106.5693   60.4271   10.0563 H        27        0    0.0000
    168 H         107.4264   60.4148   11.5937 H        27        0    0.0000
    169 C         107.7501   62.2280   10.4201 C.3      28        0    0.0000
    170 C         106.6615   63.0289   11.1429 C.3      28        0    0.0000
    171 H         108.7355   62.4727   10.8354 H        28        0    0.0000
    172 H         107.7781   62.5041    9.3587 H        28        0    0.0000
    173 H         105.6830   62.8281   10.6893 H        28        0    0.0000
    174 H         106.5941   62.7114   12.1909 H        28        0    0.0000
    175 C         106.9316   64.5725   11.0990 C.3      29        0    0.0000
    176 C         105.8645   65.3707   11.8561 C.3      29        0    0.0000
    177 H         107.9227   64.7703   11.5257 H        29        0    0.0000
    178 H         106.9697   64.8951   10.0511 H        29        0    0.0000
    179 H         106.3251   65.9226   12.6848 H        29        0    0.0000
    180 H         105.4125   66.1182   11.1925 H        29        0    0.0000
    181 C         104.7307   64.4522   12.4291 C.3      30        0    0.0000
    182 C         103.7790   65.2147   13.3574 C.3      30        0    0.0000
    183 H         104.1712   64.0171   11.5918 H        30        0    0.0000
    184 H         105.1921   63.6155   12.9683 H        30        0    0.0000
    185 H         104.3477   65.7130   14.1522 H        30        0    0.0000
    186 H         103.2607   66.0039   12.7987 H        30        0    0.0000
    187 C         102.7098   64.2750   14.0140 C.3      31        0    0.0000
    188 C         101.8027   65.0244   14.9961 C.3      31        0    0.0000
    189 H         102.1071   63.8163   13.2204 H        31        0    0.0000
    190 H         103.2273   63.4565   14.5296 H        31        0    0.0000
    191 H         102.4080   65.5120   15.7703 H        31        0    0.0000
    192 H         101.2590   65.8210   14.4732 H        31        0    0.0000
    193 C         100.7651   64.0753   15.6892 C.3      32        0    0.0000
    194 C          99.8789   64.8189   16.6946 C.3      32        0    0.0000
    195 H         100.1445   63.6053   14.9162 H        32        0    0.0000
    196 H         101.3078   63.2658   16.1928 H        32        0    0.0000
    197 H          99.1805   65.4784   16.1646 H        32        0    0.0000
    198 H          99.2691   64.1032   17.2598 H        32        0    0.0000
    199 C         100.7168   65.6769   17.7042 C.3      33        0    0.0000
    200 C          99.8767   66.7694   18.3747 C.3      33        0    0.0000
    201 H         101.1440   65.0112   18.4643 H        33        0    0.0000
    202 H         101.5619   66.1274   17.1691 H        33        0    0.0000
    203 H          98.9807   66.9755   17.7762 H        33        0    0.0000
    204 H          99.5276   66.4261   19.3565 H        33        0    0.0000
    205 C         100.6776   68.1040   18.5615 C.3      34        0    0.0000
    206 C          99.8364   69.1977   19.2289 C.3      34        0    0.0000
    207 H         101.5722   67.8984   19.1622 H        34        0    0.0000
    208 H         101.0288   68.4459   17.5801 H        34        0    0.0000
    209 H          99.1377   69.6308   18.5024 H        34        0    0.0000
    210 H          99.2274   68.7659   20.0328 H        34        0    0.0000
    211 C         100.7207   70.3461   19.8260 C.3      35        0    0.0000
    212 C          99.8794   71.4415   20.4902 C.3      35        0    0.0000
    213 H         101.4176   69.9133   20.5544 H        35        0    0.0000
    214 H         101.3316   70.7761   19.0226 H        35        0    0.0000
    215 H          99.1649   71.8566   19.7686 H        35        0    0.0000
    216 H          99.2876   71.0161   21.3102 H        35        0    0.0000
    217 C         100.7616   72.6074   21.0557 C.3      36        0    0.0000
    218 C         100.2291   73.9869   20.6525 C.3      36        0    0.0000
    219 H         100.7997   72.5238   22.1490 H        36        0    0.0000
    220 H         101.7895   72.4805   20.6941 H        36        0    0.0000
    221 H          99.8624   73.9611   19.6188 H        36        0    0.0000
    222 H          99.3739   74.2592   21.2834 H        36        0    0.0000
    223 C         101.3221   75.1041   20.7731 C.3      37        0    0.0000
    224 C         100.7442   76.4296   21.2813 C.3      37        0    0.0000
    225 H         102.1121   74.7544   21.4492 H        37        0    0.0000
    226 H         101.7892   75.2493   19.7911 H        37        0    0.0000
    227 H         100.0588   76.8515   20.5358 H        37        0    0.0000
    228 H         100.1546   76.2589   22.1905 H        37        0    0.0000
    229 C         101.8616   77.4837   21.5941 C.3      38        0    0.0000
    230 C         101.6339   78.8077   20.8564 C.3      38        0    0.0000
    231 H         101.8912   77.6568   22.6770 H        38        0    0.0000
    232 H         102.8348   77.0606   21.3159 H        38        0    0.0000
    233 H         101.2573   78.6145   19.8442 H        38        0    0.0000
    234 H         100.8655   79.3978   21.3710 H        38        0    0.0000
    235 C         102.9435   79.6633   20.7535 C.3      39        0    0.0000
    236 C         102.8561   80.9591   21.5672 C.3      39        0    0.0000
    237 H         103.7898   79.0575   21.1004 H        39        0    0.0000
    238 H         103.1330   79.8940   19.6978 H        39        0    0.0000
    239 H         102.4498   81.7668   20.9459 H        39        0    0.0000
    240 H         102.1633   80.8294   22.4079 H        39        0    0.0000
    241 C         104.2512   81.4047   22.1263 C.3      40        0    0.0000
    242 C         104.3666   82.9278   22.2532 C.3      40        0    0.0000
    243 H         104.4074   80.9329   23.1043 H        40        0    0.0000
    244 H         105.0367   81.0220   21.4629 H        40        0    0.0000
    245 H         104.0551   83.4079   21.3173 H        40        0    0.0000
    246 H         103.6889   83.2925   23.0351 H        40        0    0.0000
    247 C         105.8260   83.3866   22.5951 C.3      41        0    0.0000
    248 C         105.9473   84.9112   22.6946 C.3      41        0    0.0000
    249 H         106.1300   82.9225   23.5416 H        41        0    0.0000
    250 H         106.5066   83.0046   21.8241 H        41        0    0.0000
    251 H         105.5783   85.3788   21.7733 H        41        0    0.0000
    252 H         105.3186   85.2861   23.5118 H        41        0    0.0000
    253 C         107.4245   85.3749   22.9400 C.3      42        0    0.0000
    254 C         107.5569   86.9016   22.9690 C.3      42        0    0.0000
    255 H         107.7761   84.9488   23.8879 H        42        0    0.0000
    256 H         108.0621   84.9570   22.1511 H        42        0    0.0000
    257 H         108.0550   87.2185   23.8937 H        42        0    0.0000
    258 H         108.1889   87.2403   22.1387 H        42        0    0.0000
    259 C         106.1671   87.6203   22.8720 C.3      43        0    0.0000
    260 C         106.3081   89.1374   22.7051 C.3      43        0    0.0000
    261 H         105.6094   87.1991   22.0263 H        43        0    0.0000
    262 H         105.5878   87.3936   23.7756 H        43        0    0.0000
    263 H         106.9298   89.5482   23.5101 H        43        0    0.0000
    264 H         106.8213   89.3660   21.7628 H        43        0    0.0000
    265 C         104.9210   89.8676   22.7151 C.3      44        0    0.0000
    266 C         105.0666   91.3896   22.8225 C.3      44        0    0.0000
    267 H         104.3767   89.6055   21.7994 H        44        0    0.0000
    268 H         104.3267   89.4864   23.5548 H        44        0    0.0000
    269 H         105.7196   91.6464   23.6657 H        44        0    0.0000
    270 H         105.5473   91.7861   21.9196 H        44        0    0.0000
    271 C         103.6858   92.1063   23.0161 C.3      45        0    0.0000
    272 C         103.8456   93.5874   23.3763 C.3      45        0    0.0000
    273 H         103.1021   92.0045   22.0928 H        45        0    0.0000
    274 H         103.1247   91.5863   23.8024 H        45        0    0.0000
    275 H         104.5146   93.6946   24.2391 H        45        0    0.0000
    276 H         104.3147   94.1282   22.5450 H        45        0    0.0000
    277 C         102.4743   94.2684   23.7124 C.3      46        0    0.0000
    278 C         102.6478   95.7032   24.2224 C.3      46        0    0.0000
    279 H         101.8465   94.2623   22.8127 H        46        0    0.0000
    280 H         101.9534   93.6624   24.4641 H        46        0    0.0000
    281 H         101.9579   96.3752   23.6970 H        46        0    0.0000
    282 H         102.3906   95.7576   25.2875 H        46        0    0.0000
    283 C         104.1117   96.2296   24.0286 C.3      47        0    0.0000
    284 C         104.3285   97.5978   24.6844 C.3      47        0    0.0000
    285 H         104.8100   95.4958   24.4497 H        47        0    0.0000
    286 H         104.3268   96.2890   22.9545 H        47        0    0.0000
    287 H         104.9852   97.4967   25.5574 H        47        0    0.0000
    288 H         104.8359   98.2740   23.9852 H        47        0    0.0000
    289 C         102.9817   98.2588   25.1391 C.3      48        0    0.0000
    290 C         103.2075   99.5508   25.9322 C.3      48        0    0.0000
    291 H         102.3712   98.4644   24.2511 H        48        0    0.0000
    292 H         102.4213   97.5376   25.7467 H        48        0    0.0000
    293 H         103.9012   99.3665   26.7619 H        48        0    0.0000
    294 H         103.6763  100.3082   25.2918 H        48        0    0.0000
    295 C         101.8721  100.1341   26.5101 C.3      49        0    0.0000
    296 C         102.0884  101.4610   27.2461 C.3      49        0    0.0000
    297 H         101.1609  100.2725   25.6863 H        49        0    0.0000
    298 H         101.4281   99.3955   27.1889 H        49        0    0.0000
    299 H         102.7027  101.2992   28.1405 H        49        0    0.0000
    300 H         102.6412  102.1602   26.6065 H        49        0    0.0000
    301 C         100.7370  102.1294   27.6754 C.3      50        0    0.0000
    302 C         100.9411  103.5360   28.2491 C.3      50        0    0.0000
    303 H         100.0709  102.1713   26.8047 H        50        0    0.0000
    304 H         100.2454  101.4882   28.4175 H        50        0    0.0000
    305 H         101.5458  103.4854   29.1630 H        50        0    0.0000
    306 H         101.4989  104.1557   27.5361 H        50        0    0.0000
    307 C          99.5830  104.2453   28.5805 C.3      51        0    0.0000
    308 C          99.7637  105.7392   28.8714 C.3      51        0    0.0000
    309 H          98.8965  104.1069   27.7360 H        51        0    0.0000
    310 H          99.1251  103.7467   29.4437 H        51        0    0.0000
    311 H         100.3720  105.8757   29.7741 H        51        0    0.0000
    312 H         100.3084  106.2193   28.0489 H        51        0    0.0000
    313 C          98.3942  106.4760   29.0686 C.3      52        0    0.0000
    314 C          98.5709  107.9838   29.2794 C.3      52        0    0.0000
    315 H          97.7631  106.2903   28.1907 H        52        0    0.0000
    316 H          97.8756  106.0342   29.9285 H        52        0    0.0000
    317 H          98.6647  108.2055   30.3497 H        52        0    0.0000
    318 H          99.4997  108.3237   28.8046 H        52        0    0.0000
    319 C          97.3733  108.8097   28.6954 C.3      53        0    0.0000
    320 C          97.5687  110.3197   28.8708 C.3      53        0    0.0000
    321 H          97.2610  108.5659   27.6316 H        53        0    0.0000
    322 H          96.4483  108.4900   29.1911 H        53        0    0.0000
    323 H          96.7847  110.8656   28.3315 H        53        0    0.0000
    324 H          97.4707  110.5912   29.9292 H        53        0    0.0000
    325 C          98.9677  110.8017   28.3530 C.3      54        0    0.0000
    326 C          99.4341  112.0849   29.0493 C.3      54        0    0.0000
    327 H          99.6992  109.9999   28.5125 H        54        0    0.0000
    328 H          98.9075  110.9623   27.2694 H        54        0    0.0000
    329 H          99.1394  112.9616   28.4593 H        54        0    0.0000
    330 H          98.9434  112.1828   30.0256 H        54        0    0.0000
    331 C         100.9873  112.1160   29.2591 C.3      55        0    0.0000
    332 C         101.4810  113.4845   29.7415 C.3      55        0    0.0000
    333 H         101.2618  111.3400   29.9844 H        55        0    0.0000
    334 H         101.4772  111.8512   28.3139 H        55        0    0.0000
    335 H         100.8480  114.2797   29.3286 H        55        0    0.0000
    336 H         101.3981  113.5508   30.8334 H        55        0    0.0000
    337 C         102.9688  113.7582   29.3302 C.3      56        0    0.0000
    338 C         103.4655  115.1225   29.8210 C.3      56        0    0.0000
    339 H         103.6008  112.9591   29.7371 H        56        0    0.0000
    340 H         103.0502  113.6989   28.2378 H        56        0    0.0000
    341 H         104.5463  115.2112   29.6553 H        56        0    0.0000
    342 H         102.9912  115.9255   29.2434 H        56        0    0.0000
    343 C         103.1673  115.3509   31.3430 C.3      57        0    0.0000
    344 C         103.5806  116.7502   31.8122 C.3      57        0    0.0000
    345 H         102.0959  115.1958   31.5206 H        57        0    0.0000
    346 H         103.6971  114.5871   31.9256 H        57        0    0.0000
    347 H         102.6945  117.3235   32.1116 H        57        0    0.0000
    348 H         104.2219  116.6754   32.6992 H        57        0    0.0000
    349 C         104.3465  117.5474   30.7008 C.3      58        0    0.0000
    350 C         105.0203  118.8093   31.2509 C.3      58        0    0.0000
    351 H         105.0964  116.8884   30.2461 H        58        0    0.0000
    352 H         103.6389  117.8148   29.9062 H        58        0    0.0000
    353 H         104.3819  119.6839   31.0746 H        58        0    0.0000
    354 H         105.1463  118.7252   32.3375 H        58        0    0.0000
    355 C         106.4220  119.0670   30.5982 C.3      59        0    0.0000
    356 C         107.1479  120.2587   31.2324 C.3      59        0    0.0000
    357 H         107.0306  118.1597   30.6975 H        59        0    0.0000
    358 H         106.2854  119.2385   29.5232 H        59        0    0.0000
    359 H         108.1574  120.3507   30.8131 H        59        0    0.0000
    360 H         106.6211  121.1908   30.9929 H        59        0    0.0000
    361 C         107.2579  120.1265   32.7905 C.3      60        0    0.0000
    362 C         107.9374  121.3424   33.4300 C.3      60        0    0.0000
    363 H         106.2511  119.9962   33.2064 H        60        0    0.0000
    364 H         107.8179  119.2138   33.0293 H        60        0    0.0000
    365 H         108.5255  121.8833   32.6783 H        60        0    0.0000
    366 H         107.1804  122.0437   33.8023 H        60        0    0.0000
    367 C         108.8805  120.9405   34.6160 C.3      61        0    0.0000
    368 C         109.5799  122.1537   35.2388 C.3      61        0    0.0000
    369 H         108.2886  120.4162   35.3764 H        61        0    0.0000
    370 H         109.6258  120.2245   34.2480 H        61        0    0.0000
    371 H         110.3594  122.5265   34.5628 H        61        0    0.0000
    372 H         108.8627  122.9727   35.3746 H        61        0    0.0000
    373 C         110.2313  121.8175   36.6245 C.3      62        0    0.0000
    374 C         110.8557  123.0503   37.2872 C.3      62        0    0.0000
    375 H         109.4648  121.3856   37.2800 H        62        0    0.0000
    376 H         110.9937  121.0424   36.4780 H        62        0    0.0000
    377 H         111.7310  123.3821   36.7152 H        62        0    0.0000
    378 H         110.1414  123.8829   37.2813 H        62        0    0.0000
    379 C         111.2945  122.7716   38.7662 C.3      63        0    0.0000
    380 C         111.3713  124.0547   39.6009 C.3      63        0    0.0000
    381 H         110.5836  122.0697   39.2196 H        63        0    0.0000
    382 H         112.2701  122.2699   38.7569 H        63        0    0.0000
    383 H         112.1707  124.7031   39.2214 H        63        0    0.0000
    384 H         110.4360  124.6204   39.5079 H        63        0    0.0000
    385 C         111.6358  123.7615   41.1180 C.3      64        0    0.0000
    386 C         112.8160  124.5697   41.6686 C.3      64        0    0.0000
    387 H         110.7256  123.9901   41.6862 H        64        0    0.0000
    388 H         111.8240  122.6880   41.2431 H        64        0    0.0000
    389 H         113.6350  124.5842   40.9388 H        64        0    0.0000
    390 H         112.5163  125.6131   41.8266 H        64        0    0.0000
    391 C         113.3546  123.9883   43.0211 C.3      65        0    0.0000
    392 C         114.1918  125.0091   43.7997 C.3      65        0    0.0000
    393 H         112.5026  123.6589   43.6287 H        65        0    0.0000
    394 H         113.9539  123.0945   42.8081 H        65        0    0.0000
    395 H         115.0161  125.3744   43.1748 H        65        0    0.0000
    396 H         113.5786  125.8824   44.0545 H        65        0    0.0000
    397 C         114.7865  124.4069   45.1192 C.3      66        0    0.0000
    398 C         115.8214  125.3341   45.7660 C.3      66        0    0.0000
    399 H         113.9656  124.2122   45.8205 H        66        0    0.0000
    400 H         115.2425  123.4357   44.8906 H        66        0    0.0000
    401 H         115.5213  126.3813   45.6363 H        66        0    0.0000
    402 H         115.8671  125.1511   46.8467 H        66        0    0.0000
    403 C         117.2539  125.1402   45.1597 C.3      67        0    0.0000
    404 C         118.2098  126.2714   45.5545 C.3      67        0    0.0000
    405 H         117.6531  124.1756   45.4969 H        67        0    0.0000
    406 H         117.1707  125.0821   44.0673 H        67        0    0.0000
    407 H         117.6388  127.1549   45.8659 H        67        0    0.0000
    408 H         118.8159  125.9679   46.4170 H        67        0    0.0000
    409 C         119.1675  126.6765   44.3814 C.3      68        0    0.0000
    410 C         120.0948  127.8358   44.7626 C.3      68        0    0.0000
    411 H         119.7604  125.8005   44.0904 H        68        0    0.0000
    412 H         118.5616  126.9507   43.5089 H        68        0    0.0000
    413 H         120.3280  128.4381   43.8758 H        68        0    0.0000
    414 H         119.5907  128.5028   45.4728 H        68        0    0.0000
    415 C         121.4365  127.3376   45.4022 C.3      69        0    0.0000
    416 C         122.4033  128.4902   45.6955 C.3      69        0    0.0000
    417 H         121.2070  126.7945   46.3274 H        69        0    0.0000
    418 H         121.9063  126.6165   44.7219 H        69        0    0.0000
    419 H         122.2966  129.2734   44.9348 H        69        0    0.0000
    420 H         122.1567  128.9518   46.6597 H        69        0    0.0000
    421 C         123.8978  128.0182   45.7287 C.3      70        0    0.0000
    422 C         124.8591  129.1580   46.0834 C.3      70        0    0.0000
    423 H         123.9952  127.2036   46.4570 H        70        0    0.0000
    424 H         124.1577  127.5979   44.7492 H        70        0    0.0000
    425 H         125.8747  128.7654   46.2178 H        70        0    0.0000
    426 H         124.9071  129.8800   45.2588 H        70        0    0.0000
    427 C         124.4314  129.9111   47.3901 C.3      71        0    0.0000
    428 C         125.2886  131.1545   47.6509 C.3      71        0    0.0000
    429 H         123.3747  130.1936   47.3055 H        71        0    0.0000
    430 H         124.5054  129.2185   48.2377 H        71        0    0.0000
    431 H         124.6936  132.0621   47.4903 H        71        0    0.0000
    432 H         125.6153  131.1732   48.6980 H        71        0    0.0000
    433 C         126.5531  131.2090   46.7260 C.3      72        0    0.0000
    434 C         127.3673  132.4914   46.9303 C.3      72        0    0.0000
    435 H         127.1779  130.3304   46.9291 H        72        0    0.0000
    436 H         126.2301  131.1311   45.6805 H        72        0    0.0000
    437 H         128.3521  132.3910   46.4574 H        72        0    0.0000
    438 H         126.8674  133.3364   46.4406 H        72        0    0.0000
    439 C         127.5675  132.8328   48.4471 C.3      73        0    0.0000
    440 C         128.2094  134.2092   48.6529 C.3      73        0    0.0000
    441 H         126.5933  132.7931   48.9500 H        73        0    0.0000
    442 H         128.1905  132.0548   48.9054 H        73        0    0.0000
    443 H         127.4697  134.9131   49.0539 H        73        0    0.0000
    444 H         129.0145  134.1416   49.3950 H        73        0    0.0000
    445 C         128.7961  134.7960   47.3229 C.3      74        0    0.0000
    446 C         129.3894  136.1957   47.5176 C.3      74        0    0.0000
    447 H         129.5645  134.1113   46.9430 H        74        0    0.0000
    448 H         128.0002  134.8264   46.5684 H        74        0    0.0000
    449 H         129.9736  136.4828   46.6344 H        74        0    0.0000
    450 H         128.5849  136.9349   47.6170 H        74        0    0.0000
    451 C         130.3116  136.2794   48.7825 C.3      75        0    0.0000
    452 C         130.7784  137.7112   49.0673 C.3      75        0    0.0000
    453 H         129.7636  135.8835   49.6464 H        75        0    0.0000
    454 H         131.1785  135.6241   48.6320 H        75        0    0.0000
    455 H         129.9118  138.3640   49.2299 H        75        0    0.0000
    456 H         131.3701  137.7373   49.9908 H        75        0    0.0000
    457 C         131.6412  138.2986   47.8977 C.3      76        0    0.0000
    458 C         132.2970  139.6322   48.2727 C.3      76        0    0.0000
    459 H         132.4097  137.5657   47.6226 H        76        0    0.0000
    460 H         131.0005  138.4291   47.0167 H        76        0    0.0000
    461 H         132.6541  140.1428   47.3698 H        76        0    0.0000
    462 H         131.5588  140.2964   48.7391 H        76        0    0.0000
    463 C         133.5022  139.4454   49.2576 C.3      77        0    0.0000
    464 C         134.4433  140.6551   49.2600 C.3      77        0    0.0000
    465 H         133.1100  139.2719   50.2673 H        77        0    0.0000
    466 H         134.0536  138.5403   48.9740 H        77        0    0.0000
    467 H         134.4449  141.1324   48.2722 H        77        0    0.0000
    468 H         134.0860  141.4082   49.9732 H        77        0    0.0000
    469 C         135.9142  140.2627   49.6339 C.3      78        0    0.0000
    470 C         136.8575  141.4706   49.6257 C.3      78        0    0.0000
    471 H         135.9137  139.7926   50.6252 H        78        0    0.0000
    472 H         136.2687  139.5037   48.9255 H        78        0    0.0000
    473 H         136.8754  141.9272   48.6283 H        78        0    0.0000
    474 H         136.4908  142.2391   50.3174 H        78        0    0.0000
    475 C         138.3218  141.0838   50.0305 C.3      79        0    0.0000
    476 C         139.2077  142.3147   50.2516 C.3      79        0    0.0000
    477 H         138.2874  140.4761   50.9432 H        79        0    0.0000
    478 H         138.7496  140.4485   49.2450 H        79        0    0.0000
    479 H         140.2661  142.0284   50.2122 H        79        0    0.0000
    480 H         139.0481  143.0426   49.4466 H        79        0    0.0000
    481 C         138.9237  143.0118   51.6267 C.3      80        0    0.0000
    482 C         139.7730  144.2720   51.8255 C.3      80        0    0.0000
    483 H         137.8575  143.2641   51.6817 H        80        0    0.0000
    484 H         139.1197  142.2949   52.4337 H        80        0    0.0000
    485 H         139.1246  145.1526   51.9129 H        80        0    0.0000
    486 H         140.3368  144.2015   52.7639 H        80        0    0.0000
    487 C         140.7805  144.5015   50.6466 C.3      81        0    0.0000
    488 C         141.5542  145.8166   50.7914 C.3      81        0    0.0000
    489 H         141.4790  143.6563   50.6089 H        81        0    0.0000
    490 H         140.2253  144.4939   49.7004 H        81        0    0.0000
    491 H         142.6310  145.6328   50.6895 H        81        0    0.0000
    492 H         141.2750  146.5078   49.9865 H        81        0    0.0000
    493 C         141.2888  146.5133   52.1704 C.3      82        0    0.0000
    494 C         142.0728  147.8217   52.3205 C.3      82        0    0.0000
    495 H         140.2132  146.7059   52.2681 H        82        0    0.0000
    496 H         141.5589  145.8185   52.9753 H        82        0    0.0000
    497 H         141.6465  148.5927   51.6668 H        82        0    0.0000
    498 H         141.9859  148.1965   53.3479 H        82        0    0.0000
    499 C         143.5914  147.6476   51.9730 C.3      83        0    0.0000
    500 C         144.3509  148.9785   52.0048 C.3      83        0    0.0000
    501 H         144.0384  146.9423   52.6845 H        83        0    0.0000
    502 H         143.6766  147.1896   50.9797 H        83        0    0.0000
    503 H         145.2586  148.8792   52.6129 H        83        0    0.0000
    504 H         144.6775  149.2496   50.9932 H        83        0    0.0000
    505 C         143.4798  150.1459   52.5844 C.3      84        0    0.0000
    506 C         144.2836  151.4391   52.7587 C.3      84        0    0.0000
    507 H         142.6293  150.3191   51.9134 H        84        0    0.0000
    508 H         143.0615  149.8301   53.5482 H        84        0    0.0000
    509 H         144.8265  151.6721   51.8343 H        84        0    0.0000
    510 H         143.6056  152.2809   52.9466 H        84        0    0.0000
    511 C         145.3116  151.3452   53.9384 C.3      85        0    0.0000
    512 C         146.0804  152.6550   54.1446 C.3      85        0    0.0000
    513 H         144.7735  151.0765   54.8559 H        85        0    0.0000
    514 H         146.0121  150.5263   53.7327 H        85        0    0.0000
    515 H         145.4315  153.4013   54.6194 H        85        0    0.0000
    516 H         146.9246  152.4924   54.8261 H        85        0    0.0000
    517 C         146.6247  153.2429   52.7972 C.3      86        0    0.0000
    518 C         147.0393  154.7124   52.9300 C.3      86        0    0.0000
    519 H         147.4795  152.6392   52.4677 H        86        0    0.0000
    520 H         145.8501  153.1387   52.0274 H        86        0    0.0000
    521 H         146.1495  155.3474   53.0232 H        86        0    0.0000
    522 H         147.6263  154.8564   53.8456 H        86        0    0.0000
    523 C         147.8850  155.2042   51.7051 C.3      87        0    0.0000
    524 C         148.2034  156.7014   51.7827 C.3      87        0    0.0000
    525 H         148.8147  154.6236   51.6613 H        87        0    0.0000
    526 H         147.3326  154.9844   50.7830 H        87        0    0.0000
    527 H         147.2859  157.2718   51.9732 H        87        0    0.0000
    528 H         148.8781  156.8993   52.6249 H        87        0    0.0000
    529 C         148.8671  157.2366   50.4671 C.3      88        0    0.0000
    530 C         149.2215  158.7248   50.5592 C.3      88        0    0.0000
    531 H         149.7690  156.6471   50.2610 H        88        0    0.0000
    532 H         148.1800  157.0647   49.6293 H        88        0    0.0000
    533 H         148.3067  159.3303   50.5565 H        88        0    0.0000
    534 H         149.7333  158.9317   51.5073 H        88        0    0.0000
    535 C         150.1396  159.1912   49.3772 C.3      89        0    0.0000
    536 C         150.6565  160.6207   49.5723 C.3      89        0    0.0000
    537 H         150.9828  158.4950   49.2886 H        89        0    0.0000
    538 H         149.5731  159.1206   48.4404 H        89        0    0.0000
    539 H         151.3356  160.8902   48.7540 H        89        0    0.0000
    540 H         149.8213  161.3311   49.5355 H        89        0    0.0000
    541 C         151.4114  160.7988   50.9347 C.3      90        0    0.0000
    542 C         151.9344  162.2266   51.1267 C.3      90        0    0.0000
    543 H         150.7307  160.5342   51.7533 H        90        0    0.0000
    544 H         152.2436  160.0850   50.9737 H        90        0    0.0000
    545 H         151.0987  162.9103   51.3208 H        90        0    0.0000
    546 H         152.5895  162.2723   52.0055 H        90        0    0.0000
    547 C         152.7286  162.7414   49.8771 C.3      91        0    0.0000
    548 C         153.2645  164.1637   50.0749 C.3      91        0    0.0000
    549 H         153.5578  162.0516   49.6763 H        91        0    0.0000
    550 H         152.0701  162.7061   49.0003 H        91        0    0.0000
    551 H         153.9403  164.4288   49.2525 H        91        0    0.0000
    552 H         152.4377  164.8843   50.0481 H        91        0    0.0000
    553 C         154.0322  164.3259   51.4320 C.3      92        0    0.0000
    554 C         154.2735  165.7963   51.7907 C.3      92        0    0.0000
    555 H         153.4553  163.8349   52.2255 H        92        0    0.0000
    556 H         154.9890  163.7936   51.3628 H        92        0    0.0000
    557 H         154.4539  166.3809   50.8801 H        92        0    0.0000
    558 H         153.3793  166.2195   52.2649 H        92        0    0.0000
    559 C         155.4932  165.9793   52.7584 C.3      93        0    0.0000
    560 C         155.7786  167.4546   53.0606 C.3      93        0    0.0000
    561 H         155.2899  165.4370   53.6901 H        93        0    0.0000
    562 H         156.3762  165.5101   52.3070 H        93        0    0.0000
    563 H         154.9748  167.8744   53.6780 H        93        0    0.0000
    564 H         156.7040  167.5471   53.6426 H        93        0    0.0000
    565 C         155.9144  168.3128   51.7558 C.3      94        0    0.0000
    566 C         156.1832  169.7911   52.0583 C.3      94        0    0.0000
    567 H         156.7263  167.9003   51.1441 H        94        0    0.0000
    568 H         154.9938  168.2105   51.1679 H        94        0    0.0000
    569 H         156.4484  170.3217   51.1354 H        94        0    0.0000
    570 H         155.2738  170.2673   52.4452 H        94        0    0.0000
    571 C         157.3374  169.9837   53.1014 C.3      95        0    0.0000
    572 C         157.4344  171.4298   53.6000 C.3      95        0    0.0000
    573 H         157.1672  169.3051   53.9465 H        95        0    0.0000
    574 H         158.2854  169.6806   52.6399 H        95        0    0.0000
    575 H         156.9424  172.1062   52.8901 H        95        0    0.0000
    576 H         156.9040  171.5350   54.5545 H        95        0    0.0000
    577 C         158.9194  171.8932   53.7933 C.3      96        0    0.0000
    578 C         159.0172  173.3492   54.2619 C.3      96        0    0.0000
    579 H         159.4048  171.2306   54.5206 H        96        0    0.0000
    580 H         159.4557  171.7665   52.8447 H        96        0    0.0000
    581 H         158.6746  173.4340   55.3006 H        96        0    0.0000
    582 H         160.0632  173.6797   54.2471 H        96        0    0.0000
    583 C         158.1683  174.3188   53.3692 C.3      97        0    0.0000
    584 C         157.9085  175.6637   54.0570 C.3      97        0    0.0000
    585 H         158.6947  174.4773   52.4198 H        97        0    0.0000
    586 H         157.2164  173.8315   53.1241 H        97        0    0.0000
    587 H         158.0368  175.5624   55.1418 H        97        0    0.0000
    588 H         158.6429  176.4061   53.7209 H        97        0    0.0000
    589 C         156.4682  176.2106   53.7673 C.3      98        0    0.0000
    590 C         156.2676  177.6319   54.3047 C.3      98        0    0.0000
    591 H         156.2931  176.1897   52.6845 H        98        0    0.0000
    592 H         155.7345  175.5309   54.2183 H        98        0    0.0000
    593 H         156.1570  177.6093   55.3960 H        98        0    0.0000
    594 H         157.1528  178.2434   54.0904 H        98        0    0.0000
    595 C         155.0089  178.3298   53.6835 C.3      99        0    0.0000
    596 C         154.8914  179.7984   54.1059 C.3      99        0    0.0000
    597 H         155.0671  178.2562   52.5905 H        99        0    0.0000
    598 H         154.1115  177.7776   53.9891 H        99        0    0.0000
    599 H         155.0754  180.4532   53.2451 H        99        0    0.0000
    600 H         153.8716  180.0103   54.4505 H        99        0    0.0000
    601 C         155.8984  180.1705   55.2482 C.3     100        0    0.0000
    602 C         156.1667  181.6779   55.3179 C.3     100        0    0.0000
    603 H         155.4949  179.8156   56.2047 H       100        0    0.0000
    604 H         156.8376  179.6285   55.0821 H       100        0    0.0000
    605 H         155.9047  182.1511   54.3634 H       100        0    0.0000
    606 H         155.5296  182.1384   56.0831 H       100        0    0.0000
    607 C         157.6651  182.0000   55.6471 C.3     101        0    0.0000
    608 C         157.9182  183.5050   55.7883 C.3     101        0    0.0000
    609 H         157.9424  181.4833   56.5742 H       101        0    0.0000
    610 H         158.2987  181.5849   54.8534 H       101        0    0.0000
    611 H         157.7985  183.9995   54.8163 H       101        0    0.0000
    612 H         157.1750  183.9499   56.4616 H       101        0    0.0000
    613 C         159.3516  183.8172   56.3409 C.3     102        0    0.0000
    614 C         159.5928  185.3208   56.5137 C.3     102        0    0.0000
    615 H         159.4801  183.3028   57.3014 H       102        0    0.0000
    616 H         160.0952  183.3934   55.6546 H       102        0    0.0000
    617 H         159.5199  185.8275   55.5434 H       102        0    0.0000
    618 H         158.8159  185.7552   57.1550 H       102        0    0.0000
    619 C         160.9961  185.6293   57.1406 C.3     103        0    0.0000
    620 C         161.2366  187.1328   57.3152 C.3     103        0    0.0000
    621 H         161.0695  185.1215   58.1104 H       103        0    0.0000
    622 H         161.7731  185.1961   56.4986 H       103        0    0.0000
    623 H         161.1743  187.6390   56.3439 H       103        0    0.0000
    624 H         160.4532  187.5681   57.9480 H       103        0    0.0000
    625 C         162.6335  187.4406   57.9567 C.3     104        0    0.0000
    626 C         162.8752  188.9443   58.1284 C.3     104        0    0.0000
    627 H         162.6948  186.9363   58.9291 H       104        0    0.0000
    628 H         163.4167  187.0033   57.3251 H       104        0    0.0000
    629 H         162.8148  189.4484   57.1558 H       104        0    0.0000
    630 H         162.0915  189.3817   58.7592 H       104        0    0.0000
    631 C         164.2715  189.2520   58.7711 C.3     105        0    0.0000
    632 C         164.5134  190.7557   58.9424 C.3     105        0    0.0000
    633 H         164.3318  188.7480   59.7437 H       105        0    0.0000
    634 H         165.0553  188.8143   58.1405 H       105        0    0.0000
    635 H         164.4428  191.2611   57.9713 H       105        0    0.0000
    636 H         163.7356  191.1914   59.5817 H       105        0    0.0000
    637 C         165.9158  191.0639   59.5716 C.3     106        0    0.0000
    638 C         166.1567  192.5676   59.7453 C.3     106        0    0.0000
    639 H         165.9871  190.5570   60.5419 H       106        0    0.0000
    640 H         166.6937  190.6298   58.9314 H       106        0    0.0000
    641 H         166.0938  193.0732   58.7737 H       106        0    0.0000
    642 H         165.3738  193.0033   60.3784 H       106        0    0.0000
    643 C         167.5540  192.8753   60.3856 C.3     107        0    0.0000
    644 C         167.7949  194.3789   60.5594 C.3     107        0    0.0000
    645 H         167.6169  192.3696   61.3571 H       107        0    0.0000
    646 H         168.3369  192.4397   59.7524 H       107        0    0.0000
    647 H         168.7007  194.5485   61.1547 H       107        0    0.0000
    648 H         167.9675  194.8476   59.5826 H       107        0    0.0000
    649 C         166.5892  195.0968   61.2582 C.3     108        0    0.0000
    650 C         166.8176  196.6052   61.4058 C.3     108        0    0.0000
    651 H         165.6795  194.9095   60.6744 H       108        0    0.0000
    652 H         166.4301  194.6423   62.2440 H       108        0    0.0000
    653 H         166.0406  197.1581   60.8635 H       108        0    0.0000
    654 H         166.7343  196.8969   62.4601 H       108        0    0.0000
    655 C         168.2218  197.0488   60.8682 C.3     109        0    0.0000
    656 C         168.6229  198.4402   61.3703 C.3     109        0    0.0000
    657 H         168.9691  196.3075   61.1773 H       109        0    0.0000
    658 H         168.2006  197.0363   59.7714 H       109        0    0.0000
    659 H         168.2532  199.2098   60.6814 H       109        0    0.0000
    660 H         168.1562  198.6380   62.3433 H       109        0    0.0000
    661 C         170.1763  198.5949   61.5142 C.3     110        0    0.0000
    662 C         170.5780  199.9900   62.0054 C.3     110        0    0.0000
    663 H         170.5448  197.8307   62.2096 H       110        0    0.0000
    664 H         170.6436  198.3890   60.5432 H       110        0    0.0000
    665 H         170.1989  200.7551   61.3166 H       110        0    0.0000
    666 H         170.1206  200.1911   62.9821 H       110        0    0.0000
    667 C         172.1322  200.1503   62.1328 C.3     111        0    0.0000
    668 C         172.5339  201.5452   62.6248 C.3     111        0    0.0000
    669 H         172.5114  199.3849   62.8212 H       111        0    0.0000
    670 H         172.5895  199.9499   61.1559 H       111        0    0.0000
    671 H         172.2824  201.6562   63.6869 H       111        0    0.0000
    672 H         173.6202  201.6745   62.5431 H       111        0    0.0000
    673 C         171.8269  202.6868   61.8161 C.3     112        0    0.0000
    674 C         172.2578  204.0817   62.2825 C.3     112        0    0.0000
    675 H         172.0554  202.5592   60.7507 H       112        0    0.0000
    676 H         170.7407  202.5741   61.9210 H       112        0    0.0000
    677 H         172.7419  204.6210   61.4588 H       112        0    0.0000
    678 H         171.3781  204.6705   62.5707 H       112        0    0.0000
    679 C         173.2465  204.0227   63.4977 C.3     113        0    0.0000
    680 C         173.8879  205.3833   63.7913 C.3     113        0    0.0000
    681 H         172.7012  203.6656   64.3801 H       113        0    0.0000
    682 H         174.0239  203.2783   63.2852 H       113        0    0.0000
    683 H         173.9737  205.9663   62.8660 H       113        0    0.0000
    684 H         173.2489  205.9618   64.4700 H       113        0    0.0000
    685 C         175.3109  205.2431   64.4339 C.3     114        0    0.0000
    686 C         175.9478  206.6037   64.7375 C.3     114        0    0.0000
    687 H         175.2263  204.6534   65.3551 H       114        0    0.0000
    688 H         175.9522  204.6714   63.7517 H       114        0    0.0000
    689 H         176.1528  207.1400   63.8027 H       114        0    0.0000
    690 H         175.2500  207.2261   65.3112 H       114        0    0.0000
    691 C         177.2844  206.4671   65.5452 C.3     115        0    0.0000
    692 C         177.9263  207.8272   65.8403 C.3     115        0    0.0000
    693 H         177.0780  205.9370   66.4833 H       115        0    0.0000
    694 H         177.9796  205.8388   64.9747 H       115        0    0.0000
    695 H         178.7554  207.7061   66.5484 H       115        0    0.0000
    696 H         178.3550  208.2479   64.9222 H       115        0    0.0000
    697 C         176.8998  208.8522   66.4345 C.3     116        0    0.0000
    698 C         177.4436  210.2851   66.4347 C.3     116        0    0.0000
    699 H         175.9720  208.8020   65.8512 H       116        0    0.0000
    700 H         176.6459  208.5460   67.4569 H       116        0    0.0000
    701 H         176.9981  210.8567   65.6111 H       116        0    0.0000
    702 H         177.1583  210.7956   67.3629 H       116        0    0.0000
    703 C         179.0043  210.3283   66.2934 C.3     117        0    0.0000
    704 C         179.5439  211.7621   66.2470 C.3     117        0    0.0000
    705 H         179.4507  209.7854   67.1357 H       117        0    0.0000
    706 H         179.2919  209.7885   65.3827 H       117        0    0.0000
    707 H         180.2984  211.9055   67.0304 H       117        0    0.0000
    708 H         180.0460  211.9442   65.2888 H       117        0    0.0000
    709 C         178.4113  212.8295   66.4349 C.3     118        0    0.0000
    710 C         178.9424  214.2637   66.3349 C.3     118        0    0.0000
    711 H         177.6374  212.6612   65.6758 H       118        0    0.0000
    712 H         177.9351  212.6718   67.4106 H       118        0    0.0000
    713 H         179.7323  214.4250   67.0790 H       118        0    0.0000
    714 H         179.3983  214.4282   65.3507 H       118        0    0.0000
    715 C         177.8156  215.3311   66.5547 C.3     119        0    0.0000
    716 C         178.3741  216.7558   66.6421 C.3     119        0    0.0000
    717 H         177.0950  215.2595   65.7305 H       119        0    0.0000
    718 H         177.2691  215.0844   67.4734 H       119        0    0.0000
    719 H         179.3698  216.7982   66.1834 H       119        0    0.0000
    720 H         177.7364  217.4452   66.0750 H       119        0    0.0000
    721 C         178.4771  217.2638   68.1215 C.3     120        0    0.0000
    722 C         179.3111  218.5443   68.2392 C.3     120        0    0.0000
    723 H         177.4648  217.4374   68.5071 H       120        0    0.0000
    724 H         178.9172  216.4702   68.7380 H       120        0    0.0000
    725 H         178.8309  219.3584   67.6823 H       120        0    0.0000
    726 H         179.3609  218.8658   69.2869 H       120        0    0.0000
    727 C         180.7704  218.3546   67.6990 C.3     121        0    0.0000
    728 C         181.6716  219.5497   68.0284 C.3     121        0    0.0000
    729 H         181.1903  217.4370   68.1293 H       121        0    0.0000
    730 H         180.7286  218.2029   66.6133 H       121        0    0.0000
    731 H         182.3640  219.7387   67.1987 H       121        0    0.0000
    732 H         181.0657  220.4567   68.1460 H       121        0    0.0000
    733 C         182.5026  219.3239   69.3384 C.3     122        0    0.0000
    734 C         183.4707  220.4786   69.6184 C.3     122        0    0.0000
    735 H         181.8096  219.2016   70.1800 H       122        0    0.0000
    736 H         183.0571  218.3817   69.2474 H       122        0    0.0000
    737 H         182.9102  221.3835   69.8841 H       122        0    0.0000
    738 H         184.1054  220.2369   70.4799 H       122        0    0.0000
    739 C         184.3886  220.7960   68.3878 C.3     123        0    0.0000
    740 C         185.3736  221.9343   68.6761 C.3     123        0    0.0000
    741 H         184.9357  219.8863   68.1109 H       123        0    0.0000
    742 H         183.7544  221.0552   67.5311 H       123        0    0.0000
    743 H         186.0926  222.0272   67.8528 H       123        0    0.0000
    744 H         184.8375  222.8896   68.7354 H       123        0    0.0000
    745 C         186.1619  221.7135   70.0130 C.3     124        0    0.0000
    746 C         187.2302  222.7885   70.2417 C.3     124        0    0.0000
    747 H         185.4492  221.7080   70.8470 H       124        0    0.0000
    748 H         186.6269  220.7202   69.9894 H       124        0    0.0000
    749 H         186.7536  223.7589   70.4278 H       124        0    0.0000
    750 H         187.8186  222.5497   71.1364 H       124        0    0.0000
    751 C         188.2025  222.9291   69.0201 C.3     125        0    0.0000
    752 C         189.6716  222.7648   69.4251 C.3     125        0    0.0000
    753 H         187.9340  222.1788   68.2662 H       125        0    0.0000
    754 H         188.0478  223.9112   68.5563 H       125        0    0.0000
    755 H         190.1329  223.7489   69.5747 H       125        0    0.0000
    756 H         189.7406  222.2356   70.3836 H       125        0    0.0000
    757 C         190.4991  221.9767   68.3520 C.3     126        0    0.0000
    758 C         191.2249  220.7672   68.9514 C.3     126        0    0.0000
    759 H         189.8220  221.6509   67.5526 H       126        0    0.0000
    760 H         191.2236  222.6602   67.8921 H       126        0    0.0000
    761 H         192.1658  220.5898   68.4159 H       126        0    0.0000
    762 H         191.4904  220.9680   69.9968 H       126        0    0.0000
    763 C         190.3561  219.4637   68.8921 C.3     127        0    0.0000
    764 C         191.0996  218.2999   68.2273 C.3     127        0    0.0000
    765 H         190.0618  219.1882   69.9124 H       127        0    0.0000
    766 H         189.4304  219.6803   68.3448 H       127        0    0.0000
    767 H         192.1812  218.4819   68.2510 H       127        0    0.0000
    768 H         190.9238  217.3727   68.7867 H       127        0    0.0000
    769 C         190.6560  218.0841   66.7393 C.3     128        0    0.0000
    770 C         190.1012  216.6761   66.4969 C.3     128        0    0.0000
    771 H         189.8991  218.8359   66.4834 H       128        0    0.0000
    772 H         191.5163  218.2674   66.0837 H       128        0    0.0000
    773 H         190.8852  216.0286   66.0852 H       128        0    0.0000
    774 H         189.7881  216.2264   67.4474 H       128        0    0.0000
    775 C         188.8806  216.6797   65.5133 C.3     129        0    0.0000
    776 C         187.9917  215.4432   65.6861 C.3     129        0    0.0000
    777 H         188.2937  217.5913   65.6813 H       129        0    0.0000
    778 H         189.2561  216.7321   64.4838 H       129        0    0.0000
    779 H         188.5810  214.5313   65.5289 H       129        0    0.0000
    780 H         187.6072  215.3968   66.7125 H       129        0    0.0000
    781 C         186.7797  215.4391   64.6918 C.3     130        0    0.0000
    782 C         186.6226  214.0947   63.9729 C.3     130        0    0.0000
    783 H         185.8648  215.6772   65.2485 H       130        0    0.0000
    784 H         186.9208  216.2433   63.9590 H       130        0    0.0000
    785 H         187.6030  213.6189   63.8465 H       130        0    0.0000
    786 H         186.0169  213.4114   64.5811 H       130        0    0.0000
    787 C         185.9504  214.2487   62.5651 C.3     131        0    0.0000
    788 C         184.8111  213.2457   62.3526 C.3     131        0    0.0000
    789 H         185.5730  215.2738   62.4638 H       131        0    0.0000
    790 H         186.7167  214.1171   61.7911 H       131        0    0.0000
    791 H         185.1764  212.3741   61.7955 H       131        0    0.0000
    792 H         184.4523  212.8735   63.3201 H       131        0    0.0000
    793 C         183.6044  213.8738   61.5737 C.3     132        0    0.0000
    794 C         182.2520  213.4323   62.1439 C.3     132        0    0.0000
    795 H         183.6897  214.9669   61.6113 H       132        0    0.0000
    796 H         183.6784  213.5882   60.5170 H       132        0    0.0000
    797 H         181.9454  212.4811   61.6914 H       132        0    0.0000
    798 H         182.3388  213.2543   63.2230 H       132        0    0.0000
    799 C         181.1270  214.4956   61.8960 C.3     133        0    0.0000
    800 C         179.7739  213.8473   61.5831 C.3     133        0    0.0000
    801 H         181.0419  215.1339   62.7841 H       133        0    0.0000
    802 H         181.4325  215.1470   61.0679 H       133        0    0.0000
    803 H         179.1488  214.5408   61.0070 H       133        0    0.0000
    804 H         179.9185  212.9586   60.9564 H       133        0    0.0000
    805 C         179.0009  213.4297   62.8814 C.3     134        0    0.0000
    806 C         177.7888  212.5428   62.5758 C.3     134        0    0.0000
    807 H         179.6926  212.9037   63.5510 H       134        0    0.0000
    808 H         178.6800  214.3365   63.4089 H       134        0    0.0000
    809 H         178.0102  211.5004   62.8364 H       134        0    0.0000
    810 H         176.9346  212.8473   63.1931 H       134        0    0.0000
    811 C         177.3702  212.6083   61.0665 C.3     135        0    0.0000
    812 C         176.4654  211.4388   60.6634 C.3     135        0    0.0000
    813 H         176.8581  213.5609   60.8825 H       135        0    0.0000
    814 H         178.2764  212.6133   60.4481 H       135        0    0.0000
    815 H         176.5770  210.6133   61.3773 H       135        0    0.0000
    816 H         175.4132  211.7471   60.7003 H       135        0    0.0000
    817 C         176.7862  210.9082   59.2235 C.3     136        0    0.0000
    818 C         175.9360  209.6886   58.8511 C.3     136        0    0.0000
    819 H         176.6183  211.7180   58.5028 H       136        0    0.0000
    820 H         177.8521  210.6544   59.1695 H       136        0    0.0000
    821 H         176.3773  209.1711   57.9903 H       136        0    0.0000
    822 H         175.9261  208.9697   59.6797 H       136        0    0.0000
    823 C         174.4581  210.0786   58.5030 C.3     137        0    0.0000
    824 C         173.6372  208.8758   58.0250 C.3     137        0    0.0000
    825 H         173.9914  210.5237   59.3904 H       137        0    0.0000
    826 H         174.4705  210.8567   57.7297 H       137        0    0.0000
    827 H         172.6980  208.8134   58.5886 H       137        0    0.0000
    828 H         173.3637  209.0023   56.9701 H       137        0    0.0000
    829 C         174.4143  207.5240   58.1868 C.3     138        0    0.0000
    830 C         173.6782  206.3490   57.5336 C.3     138        0    0.0000
    831 H         175.4124  207.6349   57.7452 H       138        0    0.0000
    832 H         174.5629  207.3273   59.2558 H       138        0    0.0000
    833 H         174.2073  206.0311   56.6266 H       138        0    0.0000
    834 H         173.6696  205.4868   58.2118 H       138        0    0.0000
    835 C         172.2001  206.7099   57.1562 C.3     139        0    0.0000
    836 C         171.5080  205.5849   56.3788 C.3     139        0    0.0000
    837 H         171.6438  206.9291   58.0759 H       139        0    0.0000
    838 H         172.2020  207.6320   56.5618 H       139        0    0.0000
    839 H         171.3697  204.7101   57.0262 H       139        0    0.0000
    840 H         170.5070  205.9055   56.0644 H       139        0    0.0000
    841 C         172.3213  205.1514   55.1106 C.3     140        0    0.0000
    842 C         171.6335  204.0205   54.3381 C.3     140        0    0.0000
    843 H         172.4541  206.0248   54.4602 H       140        0    0.0000
    844 H         173.3244  204.8369   55.4244 H       140        0    0.0000
    845 H         171.4329  204.3370   53.3070 H       140        0    0.0000
    846 H         172.2971  203.1491   54.2766 H       140        0    0.0000
    847 C         170.2837  203.5816   55.0036 C.3     141        0    0.0000
    848 C         169.5156  202.5694   54.1466 C.3     141        0    0.0000
    849 H         170.4989  203.1527   55.9901 H       141        0    0.0000
    850 H         169.6678  204.4732   55.1753 H       141        0    0.0000
    851 H         170.0717  201.6255   54.0903 H       141        0    0.0000
    852 H         168.5495  202.3386   54.6124 H       141        0    0.0000
    853 C         169.2623  203.0942   52.6913 C.3     142        0    0.0000
    854 C         168.5467  202.0588   51.8168 C.3     142        0    0.0000
    855 H         168.6687  204.0152   52.7458 H       142        0    0.0000
    856 H         170.2250  203.3661   52.2409 H       142        0    0.0000
    857 H         168.1939  202.5284   50.8902 H       142        0    0.0000
    858 H         169.2467  201.2671   51.5220 H       142        0    0.0000
    859 C         167.3244  201.4055   52.5493 C.3     143        0    0.0000
    860 C         166.8587  200.1156   51.8650 C.3     143        0    0.0000
    861 H         167.6047  201.1992   53.5898 H       143        0    0.0000
    862 H         166.5027  202.1316   52.5825 H       143        0    0.0000
    863 H         166.1321  200.3492   51.0769 H       143        0    0.0000
    864 H         167.7072  199.6222   51.3750 H       143        0    0.0000
    865 C         166.2038  199.1106   52.8742 C.3     144        0    0.0000
    866 C         165.7005  197.8386   52.1832 C.3     144        0    0.0000
    867 H         166.9405  198.8534   53.6454 H       144        0    0.0000
    868 H         165.3743  199.6138   53.3863 H       144        0    0.0000
    869 H         164.9561  198.0949   51.4192 H       144        0    0.0000
    870 H         166.5279  197.3409   51.6623 H       144        0    0.0000
    871 C         165.0588  196.8272   53.1946 C.3     145        0    0.0000
    872 C         164.5669  195.5497   52.5053 C.3     145        0    0.0000
    873 H         165.8003  196.5779   53.9638 H       145        0    0.0000
    874 H         164.2255  197.3220   53.7088 H       145        0    0.0000
    875 H         163.8408  195.8006   51.7221 H       145        0    0.0000
    876 H         165.4041  195.0441   52.0084 H       145        0    0.0000
    877 C         163.8991  194.5509   53.5122 C.3     146        0    0.0000
    878 C         163.1644  193.4108   52.7983 C.3     146        0    0.0000
    879 H         164.6745  194.1433   54.1727 H       146        0    0.0000
    880 H         163.2012  195.1063   54.1509 H       146        0    0.0000
    881 H         162.5444  193.8125   51.9873 H       146        0    0.0000
    882 H         163.8881  192.7296   52.3338 H       146        0    0.0000
    883 C         162.2516  192.5899   53.7732 C.3     147        0    0.0000
    884 C         161.4437  191.5115   53.0427 C.3     147        0    0.0000
    885 H         162.8817  192.1301   54.5445 H       147        0    0.0000
    886 H         161.5747  193.2814   54.2902 H       147        0    0.0000
    887 H         161.0235  190.8018   53.7660 H       147        0    0.0000
    888 H         160.5945  191.9678   52.5191 H       147        0    0.0000
    889 C         162.3116  190.7204   52.0043 C.3     148        0    0.0000
    890 C         161.4818  189.7120   51.2020 C.3     148        0    0.0000
    891 H         162.7917  191.4367   51.3260 H       148        0    0.0000
    892 H         163.1183  190.2033   52.5386 H       148        0    0.0000
    893 H         161.4508  190.0062   50.1456 H       148        0    0.0000
    894 H         161.9534  188.7222   51.2398 H       148        0    0.0000
    895 C         160.0130  189.5926   51.7366 C.3     149        0    0.0000
    896 C         159.2486  188.4369   51.0815 C.3     149        0    0.0000
    897 H         160.0427  189.4550   52.8246 H       149        0    0.0000
    898 H         159.4917  190.5403   51.5530 H       149        0    0.0000
    899 H         158.2437  188.3572   51.5145 H       149        0    0.0000
    900 H         159.1154  188.6333   50.0104 H       149        0    0.0000
    901 C         159.9843  187.0636   51.2558 C.3     150        0    0.0000
    902 C         159.2382  185.9138   50.5699 C.3     150        0    0.0000
    903 H         160.9983  187.1513   50.8463 H       150        0    0.0000
    904 H         160.0941  186.8547   52.3271 H       150        0    0.0000
    905 H         158.6012  186.3048   49.7669 H       150        0    0.0000
    906 H         159.9541  185.2288   50.0989 H       150        0    0.0000
    907 C         158.3469  185.1024   51.5723 C.3     151        0    0.0000
    908 C         157.5964  183.9561   50.8854 C.3     151        0    0.0000
    909 H         158.9846  184.7080   52.3730 H       151        0    0.0000
    910 H         157.6338  185.7882   52.0463 H       151        0    0.0000
    911 H         156.9018  184.3567   50.1366 H       151        0    0.0000
    912 H         158.3034  183.3129   50.3470 H       151        0    0.0000
    913 C         156.7902  183.0790   51.9043 C.3     152        0    0.0000
    914 C         155.3245  182.9072   51.4904 C.3     152        0    0.0000
    915 H         157.2750  182.0984   51.9877 H       152        0    0.0000
    916 H         156.8489  183.5449   52.8958 H       152        0    0.0000
    917 H         154.6718  183.0101   52.3661 H       152        0    0.0000
    918 H         155.0366  183.6992   50.7880 H       152        0    0.0000
    919 C         155.0556  181.5156   50.8205 C.3     153        0    0.0000
    920 C         153.9664  181.5896   49.7448 C.3     153        0    0.0000
    921 H         155.9917  181.1468   50.3833 H       153        0    0.0000
    922 H         154.7674  180.7982   51.5989 H       153        0    0.0000
    923 H         153.8464  182.6246   49.4016 H       153        0    0.0000
    924 H         154.2624  180.9994   48.8686 H       153        0    0.0000
    925 C         152.5829  181.0654   50.2631 C.3     154        0    0.0000
    926 C         152.1138  179.8180   49.5062 C.3     154        0    0.0000
    927 H         152.6669  180.8459   51.3347 H       154        0    0.0000
    928 H         151.8410  181.8673   50.1630 H       154        0    0.0000
    929 H         151.0188  179.7538   49.5288 H       154        0    0.0000
    930 H         152.4036  179.8875   48.4504 H       154        0    0.0000
    931 C         152.7097  178.4988   50.1080 C.3     155        0    0.0000
    932 C         151.9912  177.2478   49.5905 C.3     155        0    0.0000
    933 H         153.7775  178.4484   49.8613 H       155        0    0.0000
    934 H         152.6411  178.5466   51.2019 H       155        0    0.0000
    935 H         150.9064  177.3613   49.7084 H       155        0    0.0000
    936 H         152.1800  177.1226   48.5170 H       155        0    0.0000
    937 C         152.4477  175.9482   50.3388 C.3     156        0    0.0000
    938 C         151.6770  174.7083   49.8722 C.3     156        0    0.0000
    939 H         153.5233  175.8058   50.1762 H       156        0    0.0000
    940 H         152.3086  176.0938   51.4172 H       156        0    0.0000
    941 H         150.6017  174.8492   50.0378 H       156        0    0.0000
    942 H         151.8134  174.5646   48.7931 H       156        0    0.0000
    943 C         152.1368  173.4078   50.6171 C.3     157        0    0.0000
    944 C         151.4378  172.1535   50.0812 C.3     157        0    0.0000
    945 H         153.2241  173.3061   50.5127 H       157        0    0.0000
    946 H         151.9327  173.5233   51.6888 H       157        0    0.0000
    947 H         150.5786  171.9019   50.7152 H       157        0    0.0000
    948 H         151.0424  172.3438   49.0757 H       157        0    0.0000
    949 C         152.4000  170.9174   50.0203 C.3     158        0    0.0000
    950 C         151.8357  169.7841   49.1564 C.3     158        0    0.0000
    951 H         153.3703  171.2437   49.6258 H       158        0    0.0000
    952 H         152.5796  170.5584   51.0412 H       158        0    0.0000
    953 H         150.8780  169.4399   49.5662 H       158        0    0.0000
    954 H         151.6312  170.1500   48.1426 H       158        0    0.0000
    955 C         152.8144  168.5630   49.0650 C.3     159        0    0.0000
    956 C         152.7793  167.8923   47.6874 C.3     159        0    0.0000
    957 H         153.8314  168.9073   49.2900 H       159        0    0.0000
    958 H         152.5481  167.8374   49.8436 H       159        0    0.0000
    959 H         151.7786  167.9873   47.2481 H       159        0    0.0000
    960 H         153.4726  168.3989   47.0045 H       159        0    0.0000
    961 C         153.1584  166.3727   47.7566 C.3     160        0    0.0000
    962 C         152.6660  165.5948   46.5313 C.3     160        0    0.0000
    963 H         154.2483  166.2839   47.8454 H       160        0    0.0000
    964 H         152.7317  165.9431   48.6714 H       160        0    0.0000
    965 H         151.7356  166.0371   46.1539 H       160        0    0.0000
    966 H         153.4007  165.6666   45.7198 H       160        0    0.0000
    967 C         152.4126  164.0812   46.8510 C.3     161        0    0.0000
    968 C         152.3862  163.2168   45.5856 C.3     161        0    0.0000
    969 H         153.1967  163.7275   47.5319 H       161        0    0.0000
    970 H         151.4616  163.9880   47.3901 H       161        0    0.0000
    971 H         151.5592  163.5273   44.9351 H       161        0    0.0000
    972 H         153.3100  163.3616   45.0118 H       161        0    0.0000
    973 C         152.2276  161.6916   45.9113 C.3     162        0    0.0000
    974 C         151.2647  160.9890   44.9478 C.3     162        0    0.0000
    975 H         153.2155  161.2163   45.8689 H       162        0    0.0000
    976 H         151.8710  161.5855   46.9434 H       162        0    0.0000
    977 H         151.3827  161.3949   43.9355 H       162        0    0.0000
    978 H         151.5049  159.9202   44.8887 H       162        0    0.0000
    979 C         149.7673  161.1469   45.3841 C.3     163        0    0.0000
    980 C         148.8572  160.1047   44.7249 C.3     163        0    0.0000
    981 H         149.7064  161.0625   46.4762 H       163        0    0.0000
    982 H         149.4289  162.1583   45.1270 H       163        0    0.0000
    983 H         148.3747  160.5338   43.8380 H       163        0    0.0000
    984 H         149.4527  159.2512   44.3777 H       163        0    0.0000
    985 C         147.7473  159.5827   45.7012 C.3     164        0    0.0000
    986 C         146.4984  160.4710   45.6891 C.3     164        0    0.0000
    987 H         147.4818  158.5565   45.4184 H       164        0    0.0000
    988 H         148.1634  159.5324   46.7151 H       164        0    0.0000
    989 H         146.3581  160.9091   44.6931 H       164        0    0.0000
    990 H         145.6058  159.8679   45.8965 H       164        0    0.0000
    991 C         146.5823  161.6284   46.7430 C.3     165        0    0.0000
    992 C         145.2397  161.8794   47.4382 C.3     165        0    0.0000
    993 H         147.3490  161.3754   47.4858 H       165        0    0.0000
    994 H         146.9215  162.5418   46.2388 H       165        0    0.0000
    995 H         144.6107  162.5299   46.8178 H       165        0    0.0000
    996 H         144.6950  160.9345   47.5567 H       165        0    0.0000
    997 C         145.4153  162.5417   48.8481 C.3     166        0    0.0000
    998 C         145.0284  164.0248   48.8455 C.3     166        0    0.0000
    999 H         144.8023  161.9943   49.5748 H       166        0    0.0000
   1000 H         146.4590  162.4259   49.1657 H       166        0    0.0000
   1001 H         145.0536  164.4183   47.8218 H       166        0    0.0000
   1002 H         143.9986  164.1455   49.2041 H       166        0    0.0000
   1003 C         145.9803  164.8887   49.7426 C.3     167        0    0.0000
   1004 C         146.6037  166.0571   48.9710 C.3     167        0    0.0000
   1005 H         145.4111  165.2660   50.6012 H       167        0    0.0000
   1006 H         146.7687  164.2418   50.1470 H       167        0    0.0000
   1007 H         146.5602  165.8614   47.8924 H       167        0    0.0000
   1008 H         146.0285  166.9744   49.1481 H       167        0    0.0000
   1009 C         148.0961  166.3097   49.3790 C.3     168        0    0.0000
   1010 C         148.2295  167.4006   50.4472 C.3     168        0    0.0000
   1011 H         148.5264  165.3695   49.7456 H       168        0    0.0000
   1012 H         148.6651  166.5885   48.4834 H       168        0    0.0000
   1013 H         148.4669  168.3621   49.9753 H       168        0    0.0000
   1014 H         147.2744  167.5337   50.9703 H       168        0    0.0000
   1015 C         149.3408  167.0670   51.5014 C.3     169        0    0.0000
   1016 C         148.7793  166.9611   52.9235 C.3     169        0    0.0000
   1017 H         149.8261  166.1250   51.2175 H       169        0    0.0000
   1018 H         150.1133  167.8448   51.4590 H       169        0    0.0000
   1019 H         149.4524  167.4597   53.6319 H       169        0    0.0000
   1020 H         147.8148  167.4802   52.9868 H       169        0    0.0000
   1021 C         148.5827  165.4729   53.3754 C.3     170        0    0.0000
   1022 C         149.0918  165.2263   54.7998 C.3     170        0    0.0000
   1023 H         147.5172  165.2207   53.3078 H       170        0    0.0000
   1024 H         149.1071  164.8169   52.6696 H       170        0    0.0000
   1025 H         149.8569  165.9685   55.0596 H       170        0    0.0000
   1026 H         148.2732  165.3528   55.5191 H       170        0    0.0000
   1027 C         149.6999  163.7919   54.9734 C.3     171        0    0.0000
   1028 C         148.6465  162.7617   55.3956 C.3     171        0    0.0000
   1029 H         150.1651  163.4882   54.0275 H       171        0    0.0000
   1030 H         150.5030  163.8362   55.7195 H       171        0    0.0000
   1031 H         149.0550  162.1024   56.1715 H       171        0    0.0000
   1032 H         147.7801  163.2691   55.8375 H       171        0    0.0000
   1033 C         148.1584  161.8838   54.1921 C.3     172        0    0.0000
   1034 C         147.9861  160.4110   54.5798 C.3     172        0    0.0000
   1035 H         147.2086  162.2887   53.8214 H       172        0    0.0000
   1036 H         148.8812  161.9748   53.3719 H       172        0    0.0000
   1037 H         148.8460  160.0750   55.1724 H       172        0    0.0000
   1038 H         147.0996  160.2903   55.2147 H       172        0    0.0000
   1039 C         147.8410  159.4799   53.3270 C.3     173        0    0.0000
   1040 C         146.5686  159.7779   52.5262 C.3     173        0    0.0000
   1041 H         148.7248  159.6049   52.6893 H       173        0    0.0000
   1042 H         147.8390  158.4350   53.6613 H       173        0    0.0000
   1043 H         146.2298  160.8021   52.7256 H       173        0    0.0000
   1044 H         146.7785  159.7192   51.4510 H       173        0    0.0000
   1045 C         145.4049  158.7850   52.8687 C.3     174        0    0.0000
   1046 C         144.1658  159.0197   51.9977 C.3     174        0    0.0000
   1047 H         145.7669  157.7576   52.7388 H       174        0    0.0000
   1048 H         145.1458  158.8961   53.9290 H       174        0    0.0000
   1049 H         143.2561  158.8047   52.5719 H       174        0    0.0000
   1050 H         144.1090  160.0743   51.7007 H       174        0    0.0000
   1051 C         144.1703  158.1307   50.7065 C.3     175        0    0.0000
   1052 C         142.8125  157.4659   50.4543 C.3     175        0    0.0000
   1053 H         144.4486  158.7550   49.8483 H       175        0    0.0000
   1054 H         144.9507  157.3662   50.8062 H       175        0    0.0000
   1055 H         142.2354  157.4239   51.3863 H       175        0    0.0000
   1056 H         142.2257  158.0653   49.7472 H       175        0    0.0000
   1057 C         142.9592  156.0128   49.8848 C.3     176        0    0.0000
   1058 C         141.6575  155.2112   49.9960 C.3     176        0    0.0000
   1059 H         143.2747  156.0742   48.8359 H       176        0    0.0000
   1060 H         143.7639  155.5003   50.4263 H       176        0    0.0000
   1061 H         141.3137  155.1948   51.0377 H       176        0    0.0000
   1062 H         140.8662  155.6958   49.4107 H       176        0    0.0000
   1063 C         141.8243  153.7350   49.4956 C.3     177        0    0.0000
   1064 C         140.4778  153.0696   49.1902 C.3     177        0    0.0000
   1065 H         142.4559  153.7349   48.5986 H       177        0    0.0000
   1066 H         142.3627  153.1612   50.2600 H       177        0    0.0000
   1067 H         139.8718  153.0106   50.1028 H       177        0    0.0000
   1068 H         139.9112  153.6782   48.4746 H       177        0    0.0000
   1069 C         140.6481  151.6263   48.6025 C.3     178        0    0.0000
   1070 C         139.3023  150.9697   48.2757 C.3     178        0    0.0000
   1071 H         141.2681  151.6832   47.6993 H       178        0    0.0000
   1072 H         141.2001  151.0130   49.3255 H       178        0    0.0000
   1073 H         138.6980  150.8768   49.1867 H       178        0    0.0000
   1074 H         138.7333  151.6025   47.5834 H       178        0    0.0000
   1075 C         139.4742  149.5487   47.6364 C.3     179        0    0.0000
   1076 C         138.2204  149.0967   46.8797 C.3     179        0    0.0000
   1077 H         140.3363  149.5681   46.9582 H       179        0    0.0000
   1078 H         139.7139  148.8305   48.4302 H       179        0    0.0000
   1079 H         137.3833  148.9741   47.5781 H       179        0    0.0000
   1080 H         137.9186  149.8661   46.1582 H       179        0    0.0000
   1081 C         138.4424  147.7463   46.1151 C.3     180        0    0.0000
   1082 C         137.1621  147.2448   45.4382 C.3     180        0    0.0000
   1083 H         139.2322  147.8891   45.3672 H       180        0    0.0000
   1084 H         138.8121  146.9952   46.8241 H       180        0    0.0000
   1085 H         136.3529  147.1668   46.1748 H       180        0    0.0000
   1086 H         136.8301  147.9654   44.6805 H       180        0    0.0000
   1087 C         137.3595  145.8479   44.7546 C.3     181        0    0.0000
   1088 C         136.0274  145.2010   44.3598 C.3     181        0    0.0000
   1089 H         137.9936  145.9744   43.8683 H       181        0    0.0000
   1090 H         137.9070  145.1918   45.4426 H       181        0    0.0000
   1091 H         135.3191  145.2582   45.1956 H       181        0    0.0000
   1092 H         135.5750  145.7508   43.5252 H       181        0    0.0000
   1093 C         136.1967  143.6993   43.9429 C.3     182        0    0.0000
   1094 C         134.8494  142.9992   43.7335 C.3     182        0    0.0000
   1095 H         136.7918  143.6528   43.0225 H       182        0    0.0000
   1096 H         136.7740  143.1801   44.7179 H       182        0    0.0000
   1097 H         134.3042  142.9408   44.6837 H       182        0    0.0000
   1098 H         134.2244  143.5837   43.0470 H       182        0    0.0000
   1099 C         135.0157  141.5511   43.1566 C.3     183        0    0.0000
   1100 C         133.6670  140.8737   42.8898 C.3     183        0    0.0000
   1101 H         135.5996  141.6048   42.2294 H       183        0    0.0000
   1102 H         135.6032  140.9536   43.8647 H       183        0    0.0000
   1103 H         133.2110  140.5579   43.8363 H       183        0    0.0000
   1104 H         132.9728  141.5867   42.4281 H       183        0    0.0000
   1105 C         133.8048  139.6240   41.9535 C.3     184        0    0.0000
   1106 C         132.6768  139.5463   40.9188 C.3     184        0    0.0000
   1107 H         134.7772  139.6668   41.4474 H       184        0    0.0000
   1108 H         133.8111  138.7178   42.5719 H       184        0    0.0000
   1109 H         131.7650  139.1529   41.3851 H       184        0    0.0000
   1110 H         132.4341  140.5509   40.5507 H       184        0    0.0000
   1111 C         133.0522  138.6377   39.6977 C.3     185        0    0.0000
   1112 C         132.1981  137.3666   39.6352 C.3     185        0    0.0000
   1113 H         132.9310  139.2181   38.7747 H       185        0    0.0000
   1114 H         134.1149  138.3739   39.7668 H       185        0    0.0000
   1115 H         131.7590  137.1598   40.6190 H       185        0    0.0000
   1116 H         131.3612  137.5096   38.9404 H       185        0    0.0000
   1117 C         133.0261  136.1163   39.1784 C.3     186        0    0.0000
   1118 C         132.2180  135.1856   38.2676 C.3     186        0    0.0000
   1119 H         133.9288  136.4607   38.6586 H       186        0    0.0000
   1120 H         133.3638  135.5714   40.0687 H       186        0    0.0000
   1121 H         131.3271  134.8232   38.7954 H       186        0    0.0000
   1122 H         131.8611  135.7363   37.3885 H       186        0    0.0000
   1123 C         133.0561  133.9518   37.7850 C.3     187        0    0.0000
   1124 C         132.1783  132.7271   37.5046 C.3     187        0    0.0000
   1125 H         133.6100  134.2326   36.8806 H       187        0    0.0000
   1126 H         133.8042  133.7112   38.5506 H       187        0    0.0000
   1127 H         131.3715  132.6651   38.2454 H       187        0    0.0000
   1128 H         131.6980  132.8253   36.5232 H       187        0    0.0000
   1129 C         132.9964  131.3903   37.5354 C.3     188        0    0.0000
   1130 C         132.0992  130.1648   37.7408 C.3     188        0    0.0000
   1131 H         133.5538  131.2951   36.5953 H       188        0    0.0000
   1132 H         133.7413  131.4500   38.3386 H       188        0    0.0000
   1133 H         131.1411  130.4694   38.1801 H       188        0    0.0000
   1134 H         131.8690  129.7007   36.7738 H       188        0    0.0000
   1135 C         132.7630  129.0917   38.6710 C.3     189        0    0.0000
   1136 C         131.8189  127.9234   38.9758 C.3     189        0    0.0000
   1137 H         133.6760  128.7215   38.1884 H       189        0    0.0000
   1138 H         133.0745  129.5768   39.6044 H       189        0    0.0000
   1139 H         132.3882  127.0730   39.3712 H       189        0    0.0000
   1140 H         131.1023  128.2122   39.7547 H       189        0    0.0000
   1141 C         131.0253  127.4545   37.7078 C.3     190        0    0.0000
   1142 C         130.0975  126.2720   38.0077 C.3     190        0    0.0000
   1143 H         130.4435  128.3007   37.3219 H       190        0    0.0000
   1144 H         131.7418  127.1809   36.9234 H       190        0    0.0000
   1145 H         129.2498  126.6047   38.6195 H       190        0    0.0000
   1146 H         129.6768  125.8778   37.0743 H       190        0    0.0000
   1147 C         130.8375  125.1115   38.7580 C.3     191        0    0.0000
   1148 C         129.8645  124.0670   39.3159 C.3     191        0    0.0000
   1149 H         131.5433  124.6362   38.0656 H       191        0    0.0000
   1150 H         131.4353  125.5411   39.5715 H       191        0    0.0000
   1151 H         129.3344  124.4736   40.1861 H       191        0    0.0000
   1152 H         129.1007  123.8262   38.5661 H       191        0    0.0000
   1153 C         130.5914  122.7443   39.7396 C.3     192        0    0.0000
   1154 C         129.6158  121.6928   40.2796 C.3     192        0    0.0000
   1155 H         131.1329  122.3452   38.8730 H       192        0    0.0000
   1156 H         131.3456  122.9832   40.4996 H       192        0    0.0000
   1157 H         128.9401  122.1485   41.0139 H       192        0    0.0000
   1158 H         128.9861  121.3111   39.4664 H       192        0    0.0000
   1159 C         130.3559  120.4867   40.9542 C.3     193        0    0.0000
   1160 C         129.3820  119.4977   41.6041 C.3     193        0    0.0000
   1161 H         130.9619  119.9749   40.1963 H       193        0    0.0000
   1162 H         131.0541  120.8759   41.7056 H       193        0    0.0000
   1163 H         128.7595  120.0145   42.3450 H       193        0    0.0000
   1164 H         128.6993  119.0903   40.8482 H       193        0    0.0000
   1165 C         130.1236  118.3093   42.3080 C.3     194        0    0.0000
   1166 C         129.5477  116.9465   41.9076 C.3     194        0    0.0000
   1167 H         131.1895  118.3569   42.0528 H       194        0    0.0000
   1168 H         130.0535  118.4428   43.3946 H       194        0    0.0000
   1169 H         128.6357  116.7403   42.4814 H       194        0    0.0000
   1170 H         129.2586  116.9566   40.8494 H       194        0    0.0000
   1171 C         130.5670  115.7788   42.1419 C.3     195        0    0.0000
   1172 C         130.1599  114.4964   41.4079 C.3     195        0    0.0000
   1173 H         131.5602  116.1041   41.8083 H       195        0    0.0000
   1174 H         130.6438  115.5873   43.2194 H       195        0    0.0000
   1175 H         129.1989  114.1323   41.7917 H       195        0    0.0000
   1176 H         130.0146  114.7039   40.3405 H       195        0    0.0000
   1177 C         131.2285  113.3596   41.5608 C.3     196        0    0.0000
   1178 C         130.7644  112.0386   40.9377 C.3     196        0    0.0000
   1179 H         132.1642  113.6885   41.0919 H       196        0    0.0000
   1180 H         131.4435  113.2175   42.6272 H       196        0    0.0000
   1181 H         129.8021  111.7366   41.3694 H       196        0    0.0000
   1182 H         130.5998  112.1679   39.8608 H       196        0    0.0000
   1183 C         131.8007  110.8826   41.1552 C.3     197        0    0.0000
   1184 C         131.2773  109.5316   40.6554 C.3     197        0    0.0000
   1185 H         132.7322  111.1405   40.6361 H       197        0    0.0000
   1186 H         132.0422  110.8206   42.2236 H       197        0    0.0000
   1187 H         131.0908  109.5767   39.5753 H       197        0    0.0000
   1188 H         132.0346  108.7535   40.8122 H       197        0    0.0000
   1189 C         129.9546  109.1024   41.3791 C.3     198        0    0.0000
   1190 C         129.4322  107.7504   40.8807 C.3     198        0    0.0000
   1191 H         130.1407  109.0587   42.4594 H       198        0    0.0000
   1192 H         129.1968  109.8798   41.2212 H       198        0    0.0000
   1193 H         128.6073  107.4079   41.5178 H       198        0    0.0000
   1194 H         129.0252  107.8548   39.8674 H       198        0    0.0000
   1195 C         130.5493  106.6508   40.8658 C.3     199        0    0.0000
   1196 C         130.0496  105.3230   40.2858 C.3     199        0    0.0000
   1197 H         131.4010  107.0199   40.2811 H       199        0    0.0000
   1198 H         130.9118  106.5010   41.8904 H       199        0    0.0000
   1199 H         129.9904  105.3887   39.1923 H       199        0    0.0000
   1200 H         130.7618  104.5207   40.5151 H       199        0    0.0000
   1201 C         128.6408  104.9231   40.8451 C.3     200        0    0.0000
   1202 C         128.0470  103.7144   40.1133 C.3     200        0    0.0000
   1203 H         128.7343  104.7056   41.9163 H       200        0    0.0000
   1204 H         127.9675  105.7847   40.7561 H       200        0    0.0000
   1205 H         127.5881  104.0343   39.1696 H       200        0    0.0000
   1206 H         128.8420  103.0049   39.8524 H       200        0    0.0000
   1207 C         126.9680  102.9704   40.9733 C.3     201        0    0.0000
   1208 C         126.6278  101.5869   40.4084 C.3     201        0    0.0000
   1209 H         127.3388  102.8762   42.0015 H       201        0    0.0000
   1210 H         126.0641  103.5903   41.0200 H       201        0    0.0000
   1211 H         125.9787  101.6884   39.5299 H       201        0    0.0000
   1212 H         127.5418  101.0843   40.0683 H       201        0    0.0000
   1213 C         125.9119  100.6742   41.4629 C.3     202        0    0.0000
   1214 C         126.0379   99.1850   41.1231 C.3     202        0    0.0000
   1215 H         126.3427  100.8721   42.4523 H       202        0    0.0000
   1216 H         124.8540  100.9595   41.5172 H       202        0    0.0000
   1217 H         125.4073   98.9417   40.2590 H       202        0    0.0000
   1218 H         127.0704   98.9509   40.8356 H       202        0    0.0000
   1219 C         125.6268   98.2648   42.3238 C.3     203        0    0.0000
   1220 C         125.7410   96.7756   41.9800 C.3     203        0    0.0000
   1221 H         126.2634   98.5019   43.1852 H       203        0    0.0000
   1222 H         124.5974   98.5053   42.6173 H       203        0    0.0000
   1223 H         125.1490   96.5498   41.0844 H       203        0    0.0000
   1224 H         126.7817   96.5234   41.7415 H       203        0    0.0000
   1225 C         125.2542   95.8561   43.1526 C.3     204        0    0.0000
   1226 C         124.9745   94.4224   42.6887 C.3     204        0    0.0000
   1227 H         126.0173   95.8544   43.9408 H       204        0    0.0000
   1228 H         124.3487   96.2928   43.5918 H       204        0    0.0000
   1229 H         124.6428   94.4233   41.6430 H       204        0    0.0000
   1230 H         125.8960   93.8283   42.7264 H       204        0    0.0000
   1231 C         123.8824   93.7169   43.5647 C.3     205        0    0.0000
   1232 C         123.5171   92.3278   43.0300 C.3     205        0    0.0000
   1233 H         124.2517   93.6384   44.5947 H       205        0    0.0000
   1234 H         122.9899   94.3540   43.5977 H       205        0    0.0000
   1235 H         124.4181   91.8128   42.6741 H       205        0    0.0000
   1236 H         123.1002   91.7120   43.8365 H       205        0    0.0000
   1237 C         122.4782   92.3966   41.8581 C.3     206        0    0.0000
   1238 C         122.0489   91.0051   41.3800 C.3     206        0    0.0000
   1239 H         121.6026   92.9654   42.1947 H       206        0    0.0000
   1240 H         122.9196   92.9603   41.0268 H       206        0    0.0000
   1241 H         120.9814   90.8512   41.5806 H       206        0    0.0000
   1242 H         122.1804   90.9234   40.2939 H       206        0    0.0000
   1243 C         122.8638   89.8605   42.0751 C.3     207        0    0.0000
   1244 C         122.2968   88.4714   41.7623 C.3     207        0    0.0000
   1245 H         123.9093   89.9223   41.7486 H       207        0    0.0000
   1246 H         122.8614   90.0325   43.1586 H       207        0    0.0000
   1247 H         122.4091   88.2512   40.6935 H       207        0    0.0000
   1248 H         122.8632   87.7033   42.3035 H       207        0    0.0000
   1249 C         120.7822   88.3474   42.1473 C.3     208        0    0.0000
   1250 C         120.1947   86.9851   41.7626 C.3     208        0    0.0000
   1251 H         120.6773   88.5109   43.2271 H       208        0    0.0000
   1252 H         120.2243   89.1513   41.6513 H       208        0    0.0000
   1253 H         120.6246   86.1980   42.3943 H       208        0    0.0000
   1254 H         119.1125   86.9778   41.9428 H       208        0    0.0000
   1255 C         120.4590   86.6273   40.2594 C.3     209        0    0.0000
   1256 C         119.7220   85.3550   39.8269 C.3     209        0    0.0000
   1257 H         120.1475   87.4734   39.6344 H       209        0    0.0000
   1258 H         121.5390   86.5058   40.1095 H       209        0    0.0000
   1259 H         119.9579   85.1206   38.7814 H       209        0    0.0000
   1260 H         120.0623   84.5011   40.4257 H       209        0    0.0000
   1261 C         118.1672   85.4893   39.9762 C.3     210        0    0.0000
   1262 C         117.4119   84.4401   39.1528 C.3     210        0    0.0000
   1263 H         117.9044   85.3954   41.0371 H       210        0    0.0000
   1264 H         117.8680   86.4980   39.6655 H       210        0    0.0000
   1265 H         117.8391   84.3743   38.1446 H       210        0    0.0000
   1266 H         117.5274   83.4492   39.6093 H       210        0    0.0000
   1267 C         115.8832   84.7664   39.0336 C.3     211        0    0.0000
   1268 C         115.0917   83.6168   38.4004 C.3     211        0    0.0000
   1269 H         115.4899   84.9880   40.0334 H       211        0    0.0000
   1270 H         115.7620   85.6795   38.4378 H       211        0    0.0000
   1271 H         114.2095   84.0095   37.8797 H       211        0    0.0000
   1272 H         115.7041   83.1099   37.6444 H       211        0    0.0000
   1273 C         114.6240   82.5622   39.4618 C.3     212        0    0.0000
   1274 C         114.0758   81.2872   38.8114 C.3     212        0    0.0000
   1275 H         115.4714   82.3172   40.1141 H       212        0    0.0000
   1276 H         113.8570   83.0187   40.0997 H       212        0    0.0000
   1277 H         112.9811   81.3338   38.7564 H       212        0    0.0000
   1278 H         114.4398   81.2048   37.7798 H       212        0    0.0000
   1279 C         114.4877   79.9949   39.5974 C.3     213        0    0.0000
   1280 C         114.0330   78.7143   38.8886 C.3     213        0    0.0000
   1281 H         115.5776   79.9892   39.7220 H       213        0    0.0000
   1282 H         114.0557   80.0410   40.6047 H       213        0    0.0000
   1283 H         112.9407   78.7081   38.7871 H       213        0    0.0000
   1284 H         114.4440   78.6809   37.8719 H       213        0    0.0000
   1285 C         114.4766   77.4212   39.6557 C.3     214        0    0.0000
   1286 C         114.0216   76.1406   38.9471 C.3     214        0    0.0000
   1287 H         115.5690   77.4273   39.7569 H       214        0    0.0000
   1288 H         114.0659   77.4548   40.6724 H       214        0    0.0000
   1289 H         112.9290   76.1329   38.8491 H       214        0    0.0000
   1290 H         114.4295   76.1087   37.9292 H       214        0    0.0000
   1291 C         114.4695   74.8474   39.7117 C.3     215        0    0.0000
   1292 C         113.8658   73.5758   39.1054 C.3     215        0    0.0000
   1293 H         115.5648   74.7885   39.6955 H       215        0    0.0000
   1294 H         114.1744   74.9389   40.7644 H       215        0    0.0000
   1295 H         112.7738   73.6665   39.0515 H       215        0    0.0000
   1296 H         114.2221   73.4440   38.0762 H       215        0    0.0000
   1297 C         114.2262   72.2941   39.9329 C.3     216        0    0.0000
   1298 C         113.4882   71.0496   39.4272 C.3     216        0    0.0000
   1299 H         115.3105   72.1345   39.8834 H       216        0    0.0000
   1300 H         113.9821   72.4737   40.9872 H       216        0    0.0000
   1301 H         112.4104   71.2472   39.3738 H       216        0    0.0000
   1302 H         113.8148   70.8067   38.4084 H       216        0    0.0000
   1303 C         113.7284   69.8022   40.3457 C.3     217        0    0.0000
   1304 C         112.9645   68.5661   39.8582 C.3     217        0    0.0000
   1305 H         114.8043   69.5902   40.3800 H       217        0    0.0000
   1306 H         113.4239   70.0530   41.3694 H       217        0    0.0000
   1307 H         113.4132   68.1881   38.9312 H       217        0    0.0000
   1308 H         113.0428   67.7596   40.5978 H       217        0    0.0000
   1309 C         111.4483   68.8687   39.5990 C.3     218        0    0.0000
   1310 C         110.6988   67.6503   39.0488 C.3     218        0    0.0000
   1311 H         110.9885   69.2007   40.5381 H       218        0    0.0000
   1312 H         111.3702   69.7074   38.8962 H       218        0    0.0000
   1313 H         109.8219   67.4352   39.6720 H       218        0    0.0000
   1314 H         110.3237   67.8634   38.0401 H       218        0    0.0000
   1315 C         111.6040   66.3718   38.9917 C.3     219        0    0.0000
   1316 C         110.8249   65.1276   38.5512 C.3     219        0    0.0000
   1317 H         112.4362   66.5583   38.3016 H       219        0    0.0000
   1318 H         112.0467   66.2074   39.9819 H       219        0    0.0000
   1319 H         109.7544   65.2651   38.7477 H       219        0    0.0000
   1320 H         110.9303   64.9812   37.4691 H       219        0    0.0000
   1321 C         111.3111   63.8311   39.2862 C.3     220        0    0.0000
   1322 C         110.4964   62.5962   38.8857 C.3     220        0    0.0000
   1323 H         112.3722   63.6720   39.0578 H       220        0    0.0000
   1324 H         111.2426   63.9919   40.3693 H       220        0    0.0000
   1325 H         110.7224   62.3164   37.8493 H       220        0    0.0000
   1326 H         110.7782   61.7404   39.5116 H       220        0    0.0000
   1327 C         108.9527   62.8337   39.0199 C.3     221        0    0.0000
   1328 C         108.1340   61.6829   38.4246 C.3     221        0    0.0000
   1329 H         108.7055   62.9616   40.0811 H       221        0    0.0000
   1330 H         108.6952   63.7761   38.5207 H       221        0    0.0000
   1331 H         107.2846   62.0806   37.8554 H       221        0    0.0000
   1332 H         108.7475   61.1115   37.7170 H       221        0    0.0000
   1333 C         107.5921   60.7075   39.5257 C.3     222        0    0.0000
   1334 C         106.6002   59.6857   38.9593 C.3     222        0    0.0000
   1335 H         108.4415   60.1904   39.9890 H       222        0    0.0000
   1336 H         107.1134   61.2981   40.3166 H       222        0    0.0000
   1337 H         107.1101   59.0170   38.2547 H       222        0    0.0000
   1338 H         106.2091   59.0538   39.7664 H       222        0    0.0000
   1339 C         105.3962   60.3703   38.2250 C.3     223        0    0.0000
   1340 C         104.3637   59.3522   37.7286 C.3     223        0    0.0000
   1341 H         104.9221   61.0826   38.9116 H       223        0    0.0000
   1342 H         105.7830   60.9555   37.3816 H       223        0    0.0000
   1343 H         103.4087   59.5014   38.2476 H       223        0    0.0000
   1344 H         104.1687   59.5048   36.6599 H       223        0    0.0000
   1345 C         104.8335   57.8732   37.9504 C.3     224        0    0.0000
   1346 C         103.7093   56.8625   37.6980 C.3     224        0    0.0000
   1347 H         105.6807   57.6676   37.2844 H       224        0    0.0000
   1348 H         105.2077   57.7711   38.9767 H       224        0    0.0000
   1349 H         102.7643   57.2412   38.1068 H       224        0    0.0000
   1350 H         103.5562   56.7318   36.6196 H       224        0    0.0000
   1351 C         104.0126   55.4642   38.3385 C.3     225        0    0.0000
   1352 C         102.9193   54.4351   38.0311 C.3     225        0    0.0000
   1353 H         104.9808   55.1072   37.9660 H       225        0    0.0000
   1354 H         104.1186   55.5877   39.4234 H       225        0    0.0000
   1355 H         103.0082   54.0904   36.9934 H       225        0    0.0000
   1356 H         103.0448   53.5511   38.6685 H       225        0    0.0000
   1357 C         101.4793   55.0149   38.2493 C.3     226        0    0.0000
   1358 C         100.4020   54.1686   37.5621 C.3     226        0    0.0000
   1359 H         101.2812   55.0735   39.3267 H       226        0    0.0000
   1360 H         101.4504   56.0430   37.8674 H       226        0    0.0000
   1361 H         100.8531   53.5534   36.7737 H       226        0    0.0000
   1362 H          99.9512   53.4756   38.2833 H       226        0    0.0000
   1363 C          99.2686   55.0483   36.9304 C.3     227        0    0.0000
   1364 C          98.3505   54.2383   36.0084 C.3     227        0    0.0000
   1365 H          98.6830   55.5041   37.7384 H       227        0    0.0000
   1366 H          99.7302   55.8723   36.3723 H       227        0    0.0000
   1367 H          98.9105   53.8897   35.1318 H       227        0    0.0000
   1368 H          97.9902   53.3424   36.5289 H       227        0    0.0000
   1369 C          97.1148   55.0704   35.5203 C.3     228        0    0.0000
   1370 C          95.8853   54.1908   35.2679 C.3     228        0    0.0000
   1371 H          96.8829   55.8339   36.2733 H       228        0    0.0000
   1372 H          97.3891   55.6058   34.6029 H       228        0    0.0000
   1373 H          95.8134   53.9419   34.2019 H       228        0    0.0000
   1374 H          95.9854   53.2407   35.8072 H       228        0    0.0000
   1375 C          94.5543   54.8878   35.7150 C.3     229        0    0.0000
   1376 C          93.3531   53.9377   35.6568 C.3     229        0    0.0000
   1377 H          94.6813   55.2715   36.7349 H       229        0    0.0000
   1378 H          94.3771   55.7580   35.0708 H       229        0    0.0000
   1379 H          93.0378   53.6673   36.6721 H       229        0    0.0000
   1380 H          92.4992   54.4394   35.1848 H       229        0    0.0000
   1381 C          93.6715   52.6255   34.8603 C.3     230        0    0.0000
   1382 C          92.4535   51.7016   34.7522 C.3     230        0    0.0000
   1383 H          94.0276   52.8973   33.8589 H       230        0    0.0000
   1384 H          94.4978   52.1021   35.3572 H       230        0    0.0000
   1385 H          92.6779   50.8597   34.0856 H       230        0    0.0000
   1386 H          92.2187   51.2722   35.7341 H       230        0    0.0000
   1387 C          91.1863   52.4499   34.2120 C.3     231        0    0.0000
   1388 C          89.9141   51.6048   34.3399 C.3     231        0    0.0000
   1389 H          91.0696   53.3911   34.7634 H       231        0    0.0000
   1390 H          91.3553   52.7188   33.1619 H       231        0    0.0000
   1391 H          90.1278   50.5612   34.0775 H       231        0    0.0000
   1392 H          89.5666   51.6031   35.3805 H       231        0    0.0000
   1393 C          88.7572   52.1300   33.4217 C.3     232        0    0.0000
   1394 C          87.5167   51.2317   33.4793 C.3     232        0    0.0000
   1395 H          88.4972   53.1505   33.7292 H       232        0    0.0000
   1396 H          89.1263   52.1960   32.3907 H       232        0    0.0000
   1397 H          87.6492   50.3646   32.8203 H       232        0    0.0000
   1398 H          87.3839   50.8383   34.4947 H       232        0    0.0000
   1399 C          86.2124   51.9922   33.0575 C.3     233        0    0.0000
   1400 C          84.9633   51.1117   33.1736 C.3     233        0    0.0000
   1401 H          86.1038   52.8840   33.6871 H       233        0    0.0000
   1402 H          86.3279   52.3471   32.0259 H       233        0    0.0000
   1403 H          84.0625   51.7107   32.9912 H       233        0    0.0000
   1404 H          84.9820   50.3290   32.4051 H       233        0    0.0000
   1405 C          84.8429   50.4341   34.5820 C.3     234        0    0.0000
   1406 C          83.7438   49.3665   34.6210 C.3     234        0    0.0000
   1407 H          85.8103   49.9877   34.8435 H       234        0    0.0000
   1408 H          84.6409   51.2094   35.3314 H       234        0    0.0000
   1409 H          84.1880   48.3664   34.5444 H       234        0    0.0000
   1410 H          83.2166   49.4043   35.5823 H       234        0    0.0000
   1411 C          82.7003   49.5458   33.4650 C.3     235        0    0.0000
   1412 C          81.5754   48.5069   33.5317 C.3     235        0    0.0000
   1413 H          82.2811   50.5581   33.5209 H       235        0    0.0000
   1414 H          83.2224   49.4737   32.5029 H       235        0    0.0000
   1415 H          81.9990   47.4953   33.5616 H       235        0    0.0000
   1416 H          80.9995   48.6348   34.4566 H       235        0    0.0000
   1417 C          80.5986   48.6096   32.3099 C.3     236        0    0.0000
   1418 C          79.4800   47.5636   32.3710 C.3     236        0    0.0000
   1419 H          80.1690   49.6187   32.2846 H       236        0    0.0000
   1420 H          81.1757   48.4896   31.3847 H       236        0    0.0000
   1421 H          79.8962   46.5590   32.2256 H       236        0    0.0000
   1422 H          79.0125   47.5704   33.3634 H       236        0    0.0000
   1423 C          78.3733   47.8135   31.2892 C.3     237        0    0.0000
   1424 C          77.1632   46.8909   31.4725 C.3     237        0    0.0000
   1425 H          78.0577   48.8628   31.3421 H       237        0    0.0000
   1426 H          78.8115   47.6660   30.2944 H       237        0    0.0000
   1427 H          77.3354   45.9378   30.9572 H       237        0    0.0000
   1428 H          77.0278   46.6546   32.5352 H       237        0    0.0000
   1429 C          75.8407   47.5298   30.9245 C.3     238        0    0.0000
   1430 C          74.5969   46.9987   31.6455 C.3     238        0    0.0000
   1431 H          75.9025   48.6196   31.0343 H       238        0    0.0000
   1432 H          75.7682   47.3251   29.8491 H       238        0    0.0000
   1433 H          74.2979   46.0334   31.2184 H       238        0    0.0000
   1434 H          74.8238   46.8182   32.7036 H       238        0    0.0000
   1435 C          73.3863   47.9901   31.5503 C.3     239        0    0.0000
   1436 C          72.1962   47.5372   32.4033 C.3     239        0    0.0000
   1437 H          73.7191   48.9861   31.8677 H       239        0    0.0000
   1438 H          73.0838   48.0789   30.4996 H       239        0    0.0000
   1439 H          71.8365   46.5598   32.0585 H       239        0    0.0000
   1440 H          72.5090   47.4076   33.4468 H       239        0    0.0000
   1441 C          71.0079   48.5586   32.3552 C.3     240        0    0.0000
   1442 C          69.8103   48.0963   33.1925 C.3     240        0    0.0000
   1443 H          71.3640   49.5324   32.7135 H       240        0    0.0000
   1444 H          70.7045   48.6991   31.3103 H       240        0    0.0000
   1445 H          69.4652   47.1145   32.8453 H       240        0    0.0000
   1446 H          70.1096   47.9725   34.2407 H       240        0    0.0000
   1447 C          68.6129   49.1058   33.1247 C.3     241        0    0.0000
   1448 C          67.2808   48.4536   33.5108 C.3     241        0    0.0000
   1449 H          68.8249   49.9512   33.7909 H       241        0    0.0000
   1450 H          68.5514   49.5136   32.1081 H       241        0    0.0000
   1451 H          67.1759   47.4851   33.0062 H       241        0    0.0000
   1452 H          67.2596   48.2511   34.5888 H       241        0    0.0000
   1453 C          66.0503   49.3519   33.1412 C.3     242        0    0.0000
   1454 C          64.8580   48.5275   32.6433 C.3     242        0    0.0000
   1455 H          65.7614   49.9363   34.0235 H       242        0    0.0000
   1456 H          66.3567   50.0723   32.3727 H       242        0    0.0000
   1457 H          65.2126   47.6573   32.0772 H       242        0    0.0000
   1458 H          64.2880   48.1378   33.4958 H       242        0    0.0000
   1459 C          63.8956   49.3651   31.7324 C.3     243        0    0.0000
   1460 C          62.9085   48.4807   30.9627 C.3     243        0    0.0000
   1461 H          63.3496   50.0810   32.3591 H       243        0    0.0000
   1462 H          64.4977   49.9557   31.0308 H       243        0    0.0000
   1463 H          63.4461   47.6696   30.4561 H       243        0    0.0000
   1464 H          62.2062   48.0063   31.6593 H       243        0    0.0000
   1465 C          62.0930   49.2898   29.8960 C.3     244        0    0.0000
   1466 C          61.0845   48.4116   29.1471 C.3     244        0    0.0000
   1467 H          61.5730   50.1143   30.3992 H       244        0    0.0000
   1468 H          62.7943   49.7461   29.1863 H       244        0    0.0000
   1469 H          61.6117   47.6420   28.5698 H       244        0    0.0000
   1470 H          60.4416   47.8837   29.8623 H       244        0    0.0000
   1471 C          60.1805   49.2433   28.1732 C.3     245        0    0.0000
   1472 C          59.0151   48.4186   27.6158 C.3     245        0    0.0000
   1473 H          59.7980   50.1211   28.7087 H       245        0    0.0000
   1474 H          60.8009   49.6214   27.3511 H       245        0    0.0000
   1475 H          59.3981   47.5839   27.0156 H       245        0    0.0000
   1476 H          58.4394   47.9769   28.4386 H       245        0    0.0000
   1477 C          58.0501   49.2781   26.7283 C.3     246        0    0.0000
   1478 C          56.5959   48.8036   26.8240 C.3     246        0    0.0000
   1479 H          58.1246   50.3276   27.0391 H       246        0    0.0000
   1480 H          58.3928   49.2327   25.6871 H       246        0    0.0000
   1481 H          56.4970   47.8031   26.3850 H       246        0    0.0000
   1482 H          56.2970   48.7169   27.8760 H       246        0    0.0000
   1483 C          55.6047   49.7753   26.0954 C.3     247        0    0.0000
   1484 C          54.4244   49.0321   25.4603 C.3     247        0    0.0000
   1485 H          55.2386   50.5145   26.8186 H       247        0    0.0000
   1486 H          56.1559   50.3320   25.3274 H       247        0    0.0000
   1487 H          54.7915   48.2207   24.8196 H       247        0    0.0000
   1488 H          53.8107   48.5644   26.2403 H       247        0    0.0000
   1489 C          53.5164   49.9807   24.6040 C.3     248        0    0.0000
   1490 C          52.1271   49.3842   24.3529 C.3     248        0    0.0000
   1491 H          53.4244   50.9438   25.1212 H       248        0    0.0000
   1492 H          54.0173   50.1825   23.6491 H       248        0    0.0000
   1493 H          52.2132   48.4695   23.7534 H       248        0    0.0000
   1494 H          51.6644   49.0947   25.3046 H       248        0    0.0000
   1495 C          51.1754   50.3859   23.6125 C.3     249        0    0.0000
   1496 C          49.7981   49.7766   23.3286 C.3     249        0    0.0000
   1497 H          51.0679   51.2898   24.2249 H       249        0    0.0000
   1498 H          51.6502   50.6963   22.6735 H       249        0    0.0000
   1499 H          49.9054   48.8740   22.7142 H       249        0    0.0000
   1500 H          49.3243   49.4640   24.2674 H       249        0    0.0000
   1501 C          48.8453   50.7794   22.5912 C.3     250        0    0.0000
   1502 C          47.3704   50.3847   22.7251 C.3     250        0    0.0000
   1503 H          49.0044   51.7846   23.0009 H       250        0    0.0000
   1504 H          49.1285   50.8225   21.5322 H       250        0    0.0000
   1505 H          47.1845   49.4402   22.1989 H       250        0    0.0000
   1506 H          47.1215   50.2121   23.7795 H       250        0    0.0000
   1507 C          46.4075   51.4807   22.1515 C.3     251        0    0.0000
   1508 C          44.9931   51.3725   22.7316 C.3     251        0    0.0000
   1509 H          46.8286   52.4701   22.3689 H       251        0    0.0000
   1510 H          46.3744   51.3856   21.0591 H       251        0    0.0000
   1511 H          44.5167   50.4449   22.3909 H       251        0    0.0000
   1512 H          45.0386   51.3195   23.8265 H       251        0    0.0000
   1513 C          44.0884   52.5853   22.3216 C.3     252        0    0.0000
   1514 C          42.6099   52.3422   22.6440 C.3     252        0    0.0000
   1515 H          44.4440   53.4834   22.8416 H       252        0    0.0000
   1516 H          44.2134   52.7726   21.2479 H       252        0    0.0000
   1517 H          42.3063   51.3489   22.2909 H       252        0    0.0000
   1518 H          42.4552   52.3513   23.7301 H       252        0    0.0000
   1519 C          41.6748   53.4180   21.9915 C.3     253        0    0.0000
   1520 C          40.2445   52.9029   21.7964 C.3     253        0    0.0000
   1521 H          41.6691   54.3130   22.6258 H       253        0    0.0000
   1522 H          42.1013   53.7186   21.0264 H       253        0    0.0000
   1523 H          40.0589   52.0482   22.4586 H       253        0    0.0000
   1524 H          39.5232   53.6807   22.0763 H       253        0    0.0000
   1525 C          39.9673   52.4654   20.3168 C.3     254        0    0.0000
   1526 C          38.6459   51.7020   20.1748 C.3     254        0    0.0000
   1527 H          39.9559   53.3588   19.6802 H       254        0    0.0000
   1528 H          40.8009   51.8421   19.9703 H       254        0    0.0000
   1529 H          38.6321   50.8436   20.8577 H       254        0    0.0000
   1530 H          37.8061   52.3468   20.4623 H       254        0    0.0000
   1531 C          38.4108   51.1882   18.7125 C.3     255        0    0.0000
   1532 C          37.0054   50.6080   18.5196 C.3     255        0    0.0000
   1533 H          38.5736   52.0193   18.0152 H       255        0    0.0000
   1534 H          39.1668   50.4283   18.4789 H       255        0    0.0000
   1535 H          36.8880   49.6985   19.1217 H       255        0    0.0000
   1536 H          36.2518   51.3212   18.8760 H       255        0    0.0000
   1537 C          36.7056   50.2634   17.0200 C.3     256        0    0.0000
   1538 C          35.2900   49.7099   16.8230 C.3     256        0    0.0000
   1539 H          36.8434   51.1680   16.4149 H       256        0    0.0000
   1540 H          37.4467   49.5342   16.6698 H       256        0    0.0000
   1541 H          34.5518   50.4103   17.2328 H       256        0    0.0000
   1542 H          35.0703   49.6112   15.7527 H       256        0    0.0000
   1543 C          35.0972   48.3137   17.5092 C.3     257        0    0.0000
   1544 C          33.7559   47.6677   17.1449 C.3     257        0    0.0000
   1545 H          35.9241   47.6566   17.2126 H       257        0    0.0000
   1546 H          35.1704   48.4410   18.5964 H       257        0    0.0000
   1547 H          33.0168   47.8664   17.9309 H       257        0    0.0000
   1548 H          33.3623   48.1127   16.2226 H       257        0    0.0000
   1549 C          33.8777   46.1175   16.9460 C.3     258        0    0.0000
   1550 C          32.7772   45.5604   16.0363 C.3     258        0    0.0000
   1551 H          34.8648   45.8917   16.5239 H       258        0    0.0000
   1552 H          33.8362   45.6306   17.9282 H       258        0    0.0000
   1553 H          31.8017   45.6444   16.5312 H       258        0    0.0000
   1554 H          32.7151   46.1526   15.1150 H       258        0    0.0000
   1555 C          33.0235   44.0595   15.6566 C.3     259        0    0.0000
   1556 C          31.8906   43.4837   14.7999 C.3     259        0    0.0000
   1557 H          33.9773   43.9824   15.1201 H       259        0    0.0000
   1558 H          33.1324   43.4748   16.5785 H       259        0    0.0000
   1559 H          30.9337   43.5794   15.3279 H       259        0    0.0000
   1560 H          31.7952   44.0557   13.8686 H       259        0    0.0000
   1561 C          32.1227   41.9746   14.4444 C.3     260        0    0.0000
   1562 C          30.9765   41.3913   13.6108 C.3     260        0    0.0000
   1563 H          33.0699   41.8815   13.8988 H       260        0    0.0000
   1564 H          32.2381   41.4058   15.3753 H       260        0    0.0000
   1565 H          30.0279   41.4927   14.1525 H       260        0    0.0000
   1566 H          30.8671   41.9544   12.6756 H       260        0    0.0000
   1567 C          31.2024   39.8787   13.2663 C.3     261        0    0.0000
   1568 C          30.0379   39.2851   12.4658 C.3     261        0    0.0000
   1569 H          32.1368   39.7808   12.6999 H       261        0    0.0000
   1570 H          31.3401   39.3201   14.2004 H       261        0    0.0000
   1571 H          29.0977   39.4169   13.0155 H       261        0    0.0000
   1572 H          29.9243   39.8197   11.5146 H       261        0    0.0000
   1573 C          30.2391   37.7594   12.1671 C.3     262        0    0.0000
   1574 C          29.0546   37.1557   11.4046 C.3     262        0    0.0000
   1575 H          31.1630   37.6310   11.5897 H       262        0    0.0000
   1576 H          30.3847   37.2294   13.1166 H       262        0    0.0000
   1577 H          28.1259   37.3118   11.9675 H       262        0    0.0000
   1578 H          28.9284   37.6652   10.4412 H       262        0    0.0000
   1579 C          29.2357   35.6205   11.1444 C.3     263        0    0.0000
   1580 C          27.9764   34.9793   10.5512 C.3     263        0    0.0000
   1581 H          30.0867   35.4746   10.4676 H       263        0    0.0000
   1582 H          29.4978   35.1301   12.0902 H       263        0    0.0000
   1583 H          27.1105   35.1882   11.1917 H       263        0    0.0000
   1584 H          27.7564   35.4193    9.5707 H       263        0    0.0000
   1585 C          28.1209   33.4269   10.3875 C.3     264        0    0.0000
   1586 C          26.7963   32.7574   10.0050 C.3     264        0    0.0000
   1587 H          28.8808   33.2212    9.6234 H       264        0    0.0000
   1588 H          28.4976   33.0057   11.3278 H       264        0    0.0000
   1589 H          26.0176   33.0221   10.7310 H       264        0    0.0000
   1590 H          26.4561   33.1265    9.0295 H       264        0    0.0000
   1591 C          26.9169   31.1958    9.9403 C.3     265        0    0.0000
   1592 C          25.5802   30.5232    9.6087 C.3     265        0    0.0000
   1593 H          27.6688   30.9301    9.1869 H       265        0    0.0000
   1594 H          27.2933   30.8300   10.9037 H       265        0    0.0000
   1595 H          24.8254   30.7977   10.3559 H       265        0    0.0000
   1596 H          25.2093   30.8808    8.6401 H       265        0    0.0000
   1597 C          25.6975   28.9607    9.5593 C.3     266        0    0.0000
   1598 C          24.4081   28.2969    9.0635 C.3     266        0    0.0000
   1599 H          26.5356   28.6895    8.9055 H       266        0    0.0000
   1600 H          25.9483   28.5931   10.5620 H       266        0    0.0000
   1601 H          23.5814   28.5224    9.7485 H       266        0    0.0000
   1602 H          24.1268   28.7056    8.0850 H       266        0    0.0000
   1603 C          24.5509   26.7408    8.9390 C.3     267        0    0.0000
   1604 C          23.6396   26.1589    7.8527 C.3     267        0    0.0000
   1605 H          25.5984   26.4981    8.7210 H       267        0    0.0000
   1606 H          24.3174   26.2855    9.9095 H       267        0    0.0000
   1607 H          22.5877   26.2782    8.1405 H       267        0    0.0000
   1608 H          23.7739   26.7104    6.9139 H       267        0    0.0000
   1609 C          23.9227   24.6394    7.5910 C.3     268        0    0.0000
   1610 C          22.6577   23.7830    7.7157 C.3     268        0    0.0000
   1611 H          24.3552   24.5277    6.5890 H       268        0    0.0000
   1612 H          24.6827   24.2936    8.3026 H       268        0    0.0000
   1613 H          22.0288   24.1578    8.5328 H       268        0    0.0000
   1614 H          22.0605   23.8583    6.7985 H       268        0    0.0000
   1615 C          22.9861   22.2735    7.9824 C.3     269        0    0.0000
   1616 C          21.9233   21.3360    7.3988 C.3     269        0    0.0000
   1617 H          23.9682   22.0437    7.5509 H       269        0    0.0000
   1618 H          23.0729   22.1164    9.0646 H       269        0    0.0000
   1619 H          20.9722   21.4691    7.9291 H       269        0    0.0000
   1620 H          21.7358   21.5879    6.3476 H       269        0    0.0000
   1621 C          22.3458   19.8292    7.4896 C.3     270        0    0.0000
   1622 C          21.2817   18.8915    6.9088 C.3     270        0    0.0000
   1623 H          23.2958   19.6956    6.9574 H       270        0    0.0000
   1624 H          22.5355   19.5778    8.5405 H       270        0    0.0000
   1625 H          20.3364   19.0128    7.4521 H       270        0    0.0000
   1626 H          21.0798   19.1537    5.8628 H       270        0    0.0000
   1627 C          21.7146   17.3864    6.9778 C.3     271        0    0.0000
   1628 C          20.7299   16.4648    6.2498 C.3     271        0    0.0000
   1629 H          22.7163   17.2862    6.5417 H       271        0    0.0000
   1630 H          21.7985   17.0905    8.0309 H       271        0    0.0000
   1631 H          19.7931   16.3929    6.8160 H       271        0    0.0000
   1632 H          20.4742   16.8866    5.2698 H       271        0    0.0000
   1633 C          21.3078   15.0222    6.0437 C.3     272        0    0.0000
   1634 C          20.3226   14.1002    5.3168 C.3     272        0    0.0000
   1635 H          22.2441   15.0940    5.4766 H       272        0    0.0000
   1636 H          21.5644   14.6007    7.0235 H       272        0    0.0000
   1637 H          20.2489   14.3865    4.2603 H       272        0    0.0000
   1638 H          20.6890   13.0664    5.3382 H       272        0    0.0000
   1639 C          18.8903   14.1418    5.9525 C.3     273        0    0.0000
   1640 C          17.8714   13.3329    5.1423 C.3     273        0    0.0000
   1641 H          18.9472   13.7559    6.9779 H       273        0    0.0000
   1642 H          18.5667   15.1875    6.0270 H       273        0    0.0000
   1643 H          17.5459   13.9075    4.2663 H       273        0    0.0000
   1644 H          18.3367   12.4151    4.7620 H       273        0    0.0000
   1645 C          16.6106   12.9463    5.9900 C.3     274        0    0.0000
   1646 C          15.5596   12.2001    5.1607 C.3     274        0    0.0000
   1647 H          16.9303   12.3271    6.8372 H       274        0    0.0000
   1648 H          16.1758   13.8600    6.4139 H       274        0    0.0000
   1649 H          15.2861   12.7927    4.2789 H       274        0    0.0000
   1650 H          15.9752   11.2554    4.7888 H       274        0    0.0000
   1651 C          14.2620   11.8918    5.9845 C.3     275        0    0.0000
   1652 C          13.2346   11.0949    5.1732 C.3     275        0    0.0000
   1653 H          14.5408   11.3359    6.8883 H       275        0    0.0000
   1654 H          13.8229   12.8394    6.3204 H       275        0    0.0000
   1655 H          12.2230   11.4667    5.3784 H       275        0    0.0000
   1656 H          13.4108   11.2370    4.0998 H       275        0    0.0000
   1657 C          13.2840    9.5613    5.4947 C.3     276        0    0.0000
   1658 C          12.1539    8.7871    4.8074 C.3     276        0    0.0000
   1659 H          14.2573    9.1652    5.1794 H       276        0    0.0000
   1660 H          13.2259    9.4258    6.5818 H       276        0    0.0000
   1661 H          12.2001    8.9387    3.7218 H       276        0    0.0000
   1662 H          12.2759    7.7106    4.9806 H       276        0    0.0000
   1663 C          10.7379    9.2239    5.3188 C.3     277        0    0.0000
   1664 C           9.6173    8.3523    4.7410 C.3     277        0    0.0000
   1665 H          10.7266    9.1734    6.4146 H       277        0    0.0000
   1666 H          10.5736   10.2748    5.0501 H       277        0    0.0000
   1667 H           9.1740    7.7359    5.5328 H       277        0    0.0000
   1668 H           8.8129    8.9860    4.3474 H       277        0    0.0000
   1669 C          10.1269    7.4124    3.5945 C.3     278        0    0.0000
   1670 C           9.0525    6.4201    3.1362 C.3     278        0    0.0000
   1671 H          10.4530    8.0308    2.7490 H       278        0    0.0000
   1672 H          11.0127    6.8708    3.9488 H       278        0    0.0000
   1673 H           8.9984    6.4037    2.0406 H       278        0    0.0000
   1674 H           9.3186    5.4043    3.4538 H       278        0    0.0000
   1675 C           7.6357    6.7731    3.7068 C.3     279        0    0.0000
   1676 C           6.5728    5.7474    3.2979 C.3     279        0    0.0000
   1677 H           7.6997    6.8328    4.8004 H       279        0    0.0000
   1678 H           7.3506    7.7716    3.3530 H       279        0    0.0000
   1679 H           6.7869    4.7776    3.7640 H       279        0    0.0000
   1680 H           5.5870    6.0614    3.6626 H       279        0    0.0000
   1681 C           6.4991    5.5557    1.7438 C.3     280        0    0.0000
   1682 C           5.3761    4.5986    1.3292 C.3     280        0    0.0000
   1683 H           6.3510    6.5356    1.2732 H       280        0    0.0000
   1684 H           7.4656    5.1781    1.3878 H       280        0    0.0000
   1685 H           5.2883    4.5727    0.2360 H       280        0    0.0000
   1686 H           5.6147    3.5771    1.6503 H       280        0    0.0000
   1687 C           3.9909    5.0089    1.9378 C.3     281        0    0.0000
   1688 C           2.9171    3.9389    1.7115 C.3     281        0    0.0000
   1689 H           4.1173    5.1937    3.0117 H       281        0    0.0000
   1690 H           3.6753    5.9592    1.4896 H       281        0    0.0000
   1691 H           2.6974    3.4214    2.6535 H       281        0    0.0000
   1692 H           1.9812    4.4084    1.3842 H       281        0    0.0000
   1693 C           3.3514    2.8784    0.6418 C.3     282        0    0.0000
   1694 C           2.3191    1.7566    0.4836 C.3     282        0    0.0000
   1695 H           3.5045    3.3867   -0.3183 H       282        0    0.0000
   1696 H           4.3217    2.4582    0.9340 H       282        0    0.0000
   1697 H           2.8275    0.7930    0.3549 H       282        0    0.0000
   1698 H           1.7118    1.6732    1.3935 H       282        0    0.0000
   1699 C           1.3673    1.9931   -0.7393 C.3     283        0    0.0000
   1700 C           0.4826    0.7759   -1.0307 C.3     283        0    0.0000
   1701 H           0.7429    2.8721   -0.5366 H       283        0    0.0000
   1702 H           1.9759    2.2351   -1.6194 H       283        0    0.0000
   1703 H           0.9223   -0.1243   -0.5837 H       283        0    0.0000
   1704 H          -0.5033    0.9081   -0.5680 H       283        0    0.0000
   1705 C           0.2912    0.5350   -2.5678 C.3     284        0    0.0000
   1706 C          -0.4764   -0.7586   -2.8618 C.3     284        0    0.0000
   1707 H          -0.2403    1.3935   -2.9968 H       284        0    0.0000
   1708 H           1.2778    0.5040   -3.0465 H       284        0    0.0000
   1709 H           0.0360   -1.6128   -2.4022 H       284        0    0.0000
   1710 H          -1.4766   -0.7128   -2.4134 H       284        0    0.0000
   1711 C          -0.6239   -1.0255   -4.3995 C.3     285        0    0.0000
   1712 C          -2.0700   -1.3395   -4.7985 C.3     285        0    0.0000
   1713 H          -0.2652   -0.1452   -4.9472 H       285        0    0.0000
   1714 H           0.0327   -1.8591   -4.6783 H       285        0    0.0000
   1715 H          -2.2711   -2.4106   -4.6718 H       285        0    0.0000
   1716 H          -2.7663   -0.8080   -4.1380 H       285        0    0.0000
   1717 C          -2.3769   -0.9399   -6.2829 C.3     286        0    0.0000
   1718 C          -2.3286   -2.1436   -7.2304 C.3     286        0    0.0000
   1719 H          -3.3663   -0.4677   -6.3247 H       286        0    0.0000
   1720 H          -1.6519   -0.1808   -6.6019 H       286        0    0.0000
   1721 H          -1.7509   -2.9577   -6.7752 H       286        0    0.0000
   1722 H          -3.3411   -2.5313   -7.3979 H       286        0    0.0000
   1723 C          -1.6896   -1.7839   -8.6159 C.3     287        0    0.0000
   1724 C          -0.7601   -2.8882   -9.1311 C.3     287        0    0.0000
   1725 H          -2.4938   -1.6012   -9.3394 H       287        0    0.0000
   1726 H          -1.1358   -0.8422   -8.5161 H       287        0    0.0000
   1727 H          -0.1460   -3.2768   -8.3093 H       287        0    0.0000
   1728 H          -1.3512   -3.7317   -9.5088 H       287        0    0.0000
   1729 C           0.1865   -2.3828  -10.2739 C.3     288        0    0.0000
   1730 C          -0.0581   -3.1158  -11.5975 C.3     288        0    0.0000
   1731 H           0.0351   -1.3045  -10.4075 H       288        0    0.0000
   1732 H           1.2278   -2.5177   -9.9561 H       288        0    0.0000
   1733 H           0.6646   -3.9329  -11.7142 H       288        0    0.0000
   1734 H          -1.0546   -3.5746  -11.5948 H       288        0    0.0000
   1735 C           0.0551   -2.1606  -12.8353 C.3     289        0    0.0000
   1736 C          -0.8434   -2.6039  -13.9952 C.3     289        0    0.0000
   1737 H          -0.2097   -1.1430  -12.5221 H       289        0    0.0000
   1738 H           1.1019   -2.1274  -13.1619 H       289        0    0.0000
   1739 H          -0.5508   -3.6046  -14.3364 H       289        0    0.0000
   1740 H          -1.8845   -2.6781  -13.6574 H       289        0    0.0000
   1741 C          -0.7757   -1.6159  -15.2103 C.3     290        0    0.0000
   1742 C          -0.7502   -2.3502  -16.5554 C.3     290        0    0.0000
   1743 H          -1.6399   -0.9415  -15.1663 H       290        0    0.0000
   1744 H           0.1186   -0.9890  -15.1070 H       290        0    0.0000
   1745 H          -0.0205   -3.1688  -16.5232 H       290        0    0.0000
   1746 H          -1.7277   -2.8073  -16.7530 H       290        0    0.0000
   1747 C          -0.3881   -1.3970  -17.7460 C.3     291        0    0.0000
   1748 C          -0.6230   -2.0558  -19.1097 C.3     291        0    0.0000
   1749 H          -0.9880   -0.4823  -17.6617 H       291        0    0.0000
   1750 H           0.6622   -1.0947  -17.6501 H       291        0    0.0000
   1751 H           0.0157   -2.9415  -19.2146 H       291        0    0.0000
   1752 H          -1.6604   -2.4047  -19.1852 H       291        0    0.0000
   1753 C          -0.3308   -1.0783  -20.2999 C.3     292        0    0.0000
   1754 C          -0.5398   -1.7452  -21.6640 C.3     292        0    0.0000
   1755 H          -0.9835   -0.2016  -20.2059 H       292        0    0.0000
   1756 H           0.7004   -0.7141  -20.2134 H       292        0    0.0000
   1757 H           0.1073   -2.6264  -21.7550 H       292        0    0.0000
   1758 H          -1.5732   -2.1026  -21.7535 H       292        0    0.0000
   1759 C          -0.2372   -0.7710  -22.8542 C.3     293        0    0.0000
   1760 C          -0.4488   -1.4371  -24.2183 C.3     293        0    0.0000
   1761 H          -0.8829    0.1111  -22.7622 H       293        0    0.0000
   1762 H           0.7968   -0.4151  -22.7658 H       293        0    0.0000
   1763 H           0.1961   -2.3199  -24.3099 H       293        0    0.0000
   1764 H          -1.4830   -1.7920  -24.3072 H       293        0    0.0000
   1765 C          -0.1446   -0.4634  -25.4085 C.3     294        0    0.0000
   1766 C          -0.3551   -1.1298  -26.7726 C.3     294        0    0.0000
   1767 H          -0.7900    0.4190  -25.3173 H       294        0    0.0000
   1768 H           0.8895   -0.1079  -25.3192 H       294        0    0.0000
   1769 H           0.2896   -2.0128  -26.8634 H       294        0    0.0000
   1770 H          -1.3894   -1.4844  -26.8623 H       294        0    0.0000
   1771 C          -0.0496   -0.1565  -27.9628 C.3     295        0    0.0000
   1772 C          -0.2591   -0.8233  -29.3268 C.3     295        0    0.0000
   1773 H          -0.6950    0.7261  -27.8725 H       295        0    0.0000
   1774 H           0.9844    0.1988  -27.8726 H       295        0    0.0000
   1775 H           0.3848   -1.7070  -29.4164 H       295        0    0.0000
   1776 H          -1.2936   -1.1767  -29.4179 H       295        0    0.0000
   1777 C           0.0493    0.1492  -30.5171 C.3     296        0    0.0000
   1778 C          -0.1638   -0.5165  -31.8811 C.3     296        0    0.0000
   1779 H          -0.5926    1.0342  -30.4261 H       296        0    0.0000
   1780 H           1.0847    0.5004  -30.4276 H       296        0    0.0000
   1781 H           0.4790   -1.4008  -31.9726 H       296        0    0.0000
   1782 H          -1.1989   -0.8688  -31.9702 H       296        0    0.0000
   1783 C           0.1430    0.4565  -33.0714 C.3     297        0    0.0000
   1784 C          -0.0664   -0.2103  -34.4354 C.3     297        0    0.0000
   1785 H          -0.5017    1.3395  -32.9815 H       297        0    0.0000
   1786 H           1.1773    0.8109  -32.9808 H       297        0    0.0000
   1787 H           0.5771   -1.0944  -34.5247 H       297        0    0.0000
   1788 H          -1.1011   -0.5633  -34.5267 H       297        0    0.0000
   1789 C           0.2426    0.7619  -35.6257 C.3     298        0    0.0000
   1790 C           0.0308    0.0959  -36.9897 C.3     298        0    0.0000
   1791 H          -0.3995    1.6468  -35.5354 H       298        0    0.0000
   1792 H           1.2779    1.1134  -35.5355 H       298        0    0.0000
   1793 H           0.6760   -0.7866  -37.0817 H       298        0    0.0000
   1794 H          -1.0034   -0.2594  -37.0784 H       298        0    0.0000
   1795 C           0.3343    1.0699  -38.1800 C.3     299        0    0.0000
   1796 C           0.1249    0.4031  -39.5440 C.3     299        0    0.0000
   1797 H          -0.3123    1.9515  -38.0891 H       299        0    0.0000
   1798 H           1.3678    1.4265  -38.0903 H       299        0    0.0000
   1799 H          -0.9462    0.2563  -39.7305 H       299        0    0.0000
   1800 H           0.4972    1.0561  -40.3431 H       299        0    0.0000
   1801 C           0.8501   -0.9831  -39.6453 C.3     300        0    0.0000
   1802 C           0.3901   -1.7917  -40.8633 C.3     300        0    0.0000
   1803 H           1.9328   -0.8130  -39.6937 H       300        0    0.0000
   1804 H           0.6610   -1.5491  -38.7247 H       300        0    0.0000
   1805 H           1.2472   -2.2981  -41.3242 H       300        0    0.0000
   1806 H          -0.3093   -2.5771  -40.5511 H       300        0    0.0000
   1807 C          -0.3072   -0.8944  -41.9432 C.3     301        0    0.0000
   1808 C          -0.8138   -1.7105  -43.1374 C.3     301        0    0.0000
   1809 H          -1.1410   -0.3585  -41.4729 H       301        0    0.0000
   1810 H           0.4051   -0.1325  -42.2833 H       301        0    0.0000
   1811 H          -1.1989   -1.0396  -43.9153 H       301        0    0.0000
   1812 H           0.0140   -2.2723  -43.5875 H       301        0    0.0000
   1813 C          -1.9457   -2.7166  -42.7322 C.3     302        0    0.0000
   1814 C          -3.1444   -2.6571  -43.6854 C.3     302        0    0.0000
   1815 H          -1.5281   -3.7309  -42.7158 H       302        0    0.0000
   1816 H          -2.2682   -2.4921  -41.7079 H       302        0    0.0000
   1817 H          -3.5620   -1.6427  -43.7017 H       302        0    0.0000
   1818 H          -2.8219   -2.8815  -44.7097 H       302        0    0.0000
   1819 H          -3.9314   -3.3566  -43.4036 H       302        0    0.0000
   1820 H         129.2798   53.1887  -40.4349 H         0        0    0.0000
@<TRIPOS>BOND
     1     1     2      1
     2     1     3      1
     3     1     4      1
     4     1  1820      H
     5     2     5      1
     6     2     6      1
     7     2     7      1
     8     7     8      1
     9     7     9      1
    10     7    10      1
    11     8    11      1
    12     8    12      1
    13     8    13      1
    14    13    14      1
    15    13    15      1
    16    13    16      1
    17    14    17      1
    18    14    18      1
    19    14    19      1
    20    19    20      1
    21    19    21      1
    22    19    22      1
    23    20    23      1
    24    20    24      1
    25    20    25      1
    26    25    26      1
    27    25    27      1
    28    25    28      1
    29    26    29      1
    30    26    30      1
    31    26    31      1
    32    31    32      1
    33    31    33      1
    34    31    34      1
    35    32    35      1
    36    32    36      1
    37    32    37      1
    38    37    38      1
    39    37    39      1
    40    37    40      1
    41    38    41      1
    42    38    42      1
    43    38    43      1
    44    43    44      1
    45    43    45      1
    46    43    46      1
    47    44    47      1
    48    44    48      1
    49    44    49      1
    50    49    50      1
    51    49    51      1
    52    49    52      1
    53    50    53      1
    54    50    54      1
    55    50    55      1
    56    55    56      1
    57    55    57      1
    58    55    58      1
    59    56    59      1
    60    56    60      1
    61    56    61      1
    62    61    62      1
    63    61    63      1
    64    61    64      1
    65    62    65      1
    66    62    66      1
    67    62    67      1
    68    67    68      1
    69    67    69      1
    70    67    70      1
    71    68    71      1
    72    68    72      1
    73    68    73      1
    74    73    74      1
    75    73    75      1
    76    73    76      1
    77    74    77      1
    78    74    78      1
    79    74    79      1
    80    79    80      1
    81    79    81      1
    82    79    82      1
    83    80    83      1
    84    80    84      1
    85    80    85      1
    86    85    86      1
    87    85    87      1
    88    85    88      1
    89    86    89      1
    90    86    90      1
    91    86    91      1
    92    91    92      1
    93    91    93      1
    94    91    94      1
    95    92    95      1
    96    92    96      1
    97    92    97      1
    98    97    98      1
    99    97    99      1
   100    97   100      1
   101    98   101      1
   102    98   102      1
   103    98   103      1
   104   103   104      1
   105   103   105      1
   106   103   106      1
   107   104   107      1
   108   104   108      1
   109   104   109      1
   110   109   110      1
   111   109   111      1
   112   109   112      1
   113   110   113      1
   114   110   114      1
   115   110   115      1
   116   115   116      1
   117   115   117      1
   118   115   118      1
   119   116   119      1
   120   116   120      1
   121   116   121      1
   122   121   122      1
   123   121   123      1
   124   121   124      1
   125   122   125      1
   126   122   126      1
   127   122   127      1
   128   127   128      1
   129   127   129      1
   130   127   130      1
   131   128   131      1
   132   128   132      1
   133   128   133      1
   134   133   134      1
   135   133   135      1
   136   133   136      1
   137   134   137      1
   138   134   138      1
   139   134   139      1
   140   139   140      1
   141   139   141      1
   142   139   142      1
   143   140   143      1
   144   140   144      1
   145   140   145      1
   146   145   146      1
   147   145   147      1
   148   145   148      1
   149   146   149      1
   150   146   150      1
   151   146   151      1
   152   151   152      1
   153   151   153      1
   154   151   154      1
   155   152   155      1
   156   152   156      1
   157   152   157      1
   158   157   158      1
   159   157   159      1
   160   157   160      1
   161   158   161      1
   162   158   162      1
   163   158   163      1
   164   163   164      1
   165   163   165      1
   166   163   166      1
   167   164   167      1
   168   164   168      1
   169   164   169      1
   170   169   170      1
   171   169   171      1
   172   169   172      1
   173   170   173      1
   174   170   174      1
   175   170   175      1
   176   175   176      1
   177   175   177      1
   178   175   178      1
   179   176   179      1
   180   176   180      1
   181   176   181      1
   182   181   182      1
   183   181   183      1
   184   181   184      1
   185   182   185      1
   186   182   186      1
   187   182   187      1
   188   187   188      1
   189   187   189      1
   190   187   190      1
   191   188   191      1
   192   188   192      1
   193   188   193      1
   194   193   194      1
   195   193   195      1
   196   193   196      1
   197   194   197      1
   198   194   198      1
   199   194   199      1
   200   199   200      1
   201   199   201      1
   202   199   202      1
   203   200   203      1
   204   200   204      1
   205   200   205      1
   206   205   206      1
   207   205   207      1
   208   205   208      1
   209   206   209      1
   210   206   210      1
   211   206   211      1
   212   211   212      1
   213   211   213      1
   214   211   214      1
   215   212   215      1
   216   212   216      1
   217   212   217      1
   218   217   218      1
   219   217   219      1
   220   217   220      1
   221   218   221      1
   222   218   222      1
   223   218   223      1
   224   223   224      1
   225   223   225      1
   226   223   226      1
   227   224   227      1
   228   224   228      1
   229   224   229      1
   230   229   230      1
   231   229   231      1
   232   229   232      1
   233   230   233      1
   234   230   234      1
   235   230   235      1
   236   235   236      1
   237   235   237      1
   238   235   238      1
   239   236   239      1
   240   236   240      1
   241   236   241      1
   242   241   242      1
   243   241   243      1
   244   241   244      1
   245   242   245      1
   246   242   246      1
   247   242   247      1
   248   247   248      1
   249   247   249      1
   250   247   250      1
   251   248   251      1
   252   248   252      1
   253   248   253      1
   254   253   254      1
   255   253   255      1
   256   253   256      1
   257   254   257      1
   258   254   258      1
   259   254   259      1
   260   259   260      1
   261   259   261      1
   262   259   262      1
   263   260   263      1
   264   260   264      1
   265   260   265      1
   266   265   266      1
   267   265   267      1
   268   265   268      1
   269   266   269      1
   270   266   270      1
   271   266   271      1
   272   271   272      1
   273   271   273      1
   274   271   274      1
   275   272   275      1
   276   272   276      1
   277   272   277      1
   278   277   278      1
   279   277   279      1
   280   277   280      1
   281   278   281      1
   282   278   282      1
   283   278   283      1
   284   283   284      1
   285   283   285      1
   286   283   286      1
   287   284   287      1
   288   284   288      1
   289   284   289      1
   290   289   290      1
   291   289   291      1
   292   289   292      1
   293   290   293      1
   294   290   294      1
   295   290   295      1
   296   295   296      1
   297   295   297      1
   298   295   298      1
   299   296   299      1
   300   296   300      1
   301   296   301      1
   302   301   302      1
   303   301   303      1
   304   301   304      1
   305   302   305      1
   306   302   306      1
   307   302   307      1
   308   307   308      1
   309   307   309      1
   310   307   310      1
   311   308   311      1
   312   308   312      1
   313   308   313      1
   314   313   314      1
   315   313   315      1
   316   313   316      1
   317   314   317      1
   318   314   318      1
   319   314   319      1
   320   319   320      1
   321   319   321      1
   322   319   322      1
   323   320   323      1
   324   320   324      1
   325   320   325      1
   326   325   326      1
   327   325   327      1
   328   325   328      1
   329   326   329      1
   330   326   330      1
   331   326   331      1
   332   331   332      1
   333   331   333      1
   334   331   334      1
   335   332   335      1
   336   332   336      1
   337   332   337      1
   338   337   338      1
   339   337   339      1
   340   337   340      1
   341   338   341      1
   342   338   342      1
   343   338   343      1
   344   343   344      1
   345   343   345      1
   346   343   346      1
   347   344   347      1
   348   344   348      1
   349   344   349      1
   350   349   350      1
   351   349   351      1
   352   349   352      1
   353   350   353      1
   354   350   354      1
   355   350   355      1
   356   355   356      1
   357   355   357      1
   358   355   358      1
   359   356   359      1
   360   356   360      1
   361   356   361      1
   362   361   362      1
   363   361   363      1
   364   361   364      1
   365   362   365      1
   366   362   366      1
   367   362   367      1
   368   367   368      1
   369   367   369      1
   370   367   370      1
   371   368   371      1
   372   368   372      1
   373   368   373      1
   374   373   374      1
   375   373   375      1
   376   373   376      1
   377   374   377      1
   378   374   378      1
   379   374   379      1
   380   379   380      1
   381   379   381      1
   382   379   382      1
   383   380   383      1
   384   380   384      1
   385   380   385      1
   386   385   386      1
   387   385   387      1
   388   385   388      1
   389   386   389      1
   390   386   390      1
   391   386   391      1
   392   391   392      1
   393   391   393      1
   394   391   394      1
   395   392   395      1
   396   392   396      1
   397   392   397      1
   398   397   398      1
   399   397   399      1
   400   397   400      1
   401   398   401      1
   402   398   402      1
   403   398   403      1
   404   403   404      1
   405   403   405      1
   406   403   406      1
   407   404   407      1
   408   404   408      1
   409   404   409      1
   410   409   410      1
   411   409   411      1
   412   409   412      1
   413   410   413      1
   414   410   414      1
   415   410   415      1
   416   415   416      1
   417   415   417      1
   418   415   418      1
   419   416   419      1
   420   416   420      1
   421   416   421      1
   422   421   422      1
   423   421   423      1
   424   421   424      1
   425   422   425      1
   426   422   426      1
   427   422   427      1
   428   427   428      1
   429   427   429      1
   430   427   430      1
   431   428   431      1
   432   428   432      1
   433   428   433      1
   434   433   434      1
   435   433   435      1
   436   433   436      1
   437   434   437      1
   438   434   438      1
   439   434   439      1
   440   439   440      1
   441   439   441      1
   442   439   442      1
   443   440   443      1
   444   440   444      1
   445   440   445      1
   446   445   446      1
   447   445   447      1
   448   445   448      1
   449   446   449      1
   450   446   450      1
   451   446   451      1
   452   451   452      1
   453   451   453      1
   454   451   454      1
   455   452   455      1
   456   452   456      1
   457   452   457      1
   458   457   458      1
   459   457   459      1
   460   457   460      1
   461   458   461      1
   462   458   462      1
   463   458   463      1
   464   463   464      1
   465   463   465      1
   466   463   466      1
   467   464   467      1
   468   464   468      1
   469   464   469      1
   470   469   470      1
   471   469   471      1
   472   469   472      1
   473   470   473      1
   474   470   474      1
   475   470   475      1
   476   475   476      1
   477   475   477      1
   478   475   478      1
   479   476   479      1
   480   476   480      1
   481   476   481      1
   482   481   482      1
   483   481   483      1
   484   481   484      1
   485   482   485      1
   486   482   486      1
   487   482   487      1
   488   487   488      1
   489   487   489      1
   490   487   490      1
   491   488   491      1
   492   488   492      1
   493   488   493      1
   494   493   494      1
   495   493   495      1
   496   493   496      1
   497   494   497      1
   498   494   498      1
   499   494   499      1
   500   499   500      1
   501   499   501      1
   502   499   502      1
   503   500   503      1
   504   500   504      1
   505   500   505      1
   506   505   506      1
   507   505   507      1
   508   505   508      1
   509   506   509      1
   510   506   510      1
   511   506   511      1
   512   511   512      1
   513   511   513      1
   514   511   514      1
   515   512   515      1
   516   512   516      1
   517   512   517      1
   518   517   518      1
   519   517   519      1
   520   517   520      1
   521   518   521      1
   522   518   522      1
   523   518   523      1
   524   523   524      1
   525   523   525      1
   526   523   526      1
   527   524   527      1
   528   524   528      1
   529   524   529      1
   530   529   530      1
   531   529   531      1
   532   529   532      1
   533   530   533      1
   534   530   534      1
   535   530   535      1
   536   535   536      1
   537   535   537      1
   538   535   538      1
   539   536   539      1
   540   536   540      1
   541   536   541      1
   542   541   542      1
   543   541   543      1
   544   541   544      1
   545   542   545      1
   546   542   546      1
   547   542   547      1
   548   547   548      1
   549   547   549      1
   550   547   550      1
   551   548   551      1
   552   548   552      1
   553   548   553      1
   554   553   554      1
   555   553   555      1
   556   553   556      1
   557   554   557      1
   558   554   558      1
   559   554   559      1
   560   559   560      1
   561   559   561      1
   562   559   562      1
   563   560   563      1
   564   560   564      1
   565   560   565      1
   566   565   566      1
   567   565   567      1
   568   565   568      1
   569   566   569      1
   570   566   570      1
   571   566   571      1
   572   571   572      1
   573   571   573      1
   574   571   574      1
   575   572   575      1
   576   572   576      1
   577   572   577      1
   578   577   578      1
   579   577   579      1
   580   577   580      1
   581   578   581      1
   582   578   582      1
   583   578   583      1
   584   583   584      1
   585   583   585      1
   586   583   586      1
   587   584   587      1
   588   584   588      1
   589   584   589      1
   590   589   590      1
   591   589   591      1
   592   589   592      1
   593   590   593      1
   594   590   594      1
   595   590   595      1
   596   595   596      1
   597   595   597      1
   598   595   598      1
   599   596   599      1
   600   596   600      1
   601   596   601      1
   602   601   602      1
   603   601   603      1
   604   601   604      1
   605   602   605      1
   606   602   606      1
   607   602   607      1
   608   607   608      1
   609   607   609      1
   610   607   610      1
   611   608   611      1
   612   608   612      1
   613   608   613      1
   614   613   614      1
   615   613   615      1
   616   613   616      1
   617   614   617      1
   618   614   618      1
   619   614   619      1
   620   619   620      1
   621   619   621      1
   622   619   622      1
   623   620   623      1
   624   620   624      1
   625   620   625      1
   626   625   626      1
   627   625   627      1
   628   625   628      1
   629   626   629      1
   630   626   630      1
   631   626   631      1
   632   631   632      1
   633   631   633      1
   634   631   634      1
   635   632   635      1
   636   632   636      1
   637   632   637      1
   638   637   638      1
   639   637   639      1
   640   637   640      1
   641   638   641      1
   642   638   642      1
   643   638   643      1
   644   643   644      1
   645   643   645      1
   646   643   646      1
   647   644   647      1
   648   644   648      1
   649   644   649      1
   650   649   650      1
   651   649   651      1
   652   649   652      1
   653   650   653      1
   654   650   654      1
   655   650   655      1
   656   655   656      1
   657   655   657      1
   658   655   658      1
   659   656   659      1
   660   656   660      1
   661   656   661      1
   662   661   662      1
   663   661   663      1
   664   661   664      1
   665   662   665      1
   666   662   666      1
   667   662   667      1
   668   667   668      1
   669   667   669      1
   670   667   670      1
   671   668   671      1
   672   668   672      1
   673   668   673      1
   674   673   674      1
   675   673   675      1
   676   673   676      1
   677   674   677      1
   678   674   678      1
   679   674   679      1
   680   679   680      1
   681   679   681      1
   682   679   682      1
   683   680   683      1
   684   680   684      1
   685   680   685      1
   686   685   686      1
   687   685   687      1
   688   685   688      1
   689   686   689      1
   690   686   690      1
   691   686   691      1
   692   691   692      1
   693   691   693      1
   694   691   694      1
   695   692   695      1
   696   692   696      1
   697   692   697      1
   698   697   698      1
   699   697   699      1
   700   697   700      1
   701   698   701      1
   702   698   702      1
   703   698   703      1
   704   703   704      1
   705   703   705      1
   706   703   706      1
   707   704   707      1
   708   704   708      1
   709   704   709      1
   710   709   710      1
   711   709   711      1
   712   709   712      1
   713   710   713      1
   714   710   714      1
   715   710   715      1
   716   715   716      1
   717   715   717      1
   718   715   718      1
   719   716   719      1
   720   716   720      1
   721   716   721      1
   722   721   722      1
   723   721   723      1
   724   721   724      1
   725   722   725      1
   726   722   726      1
   727   722   727      1
   728   727   728      1
   729   727   729      1
   730   727   730      1
   731   728   731      1
   732   728   732      1
   733   728   733      1
   734   733   734      1
   735   733   735      1
   736   733   736      1
   737   734   737      1
   738   734   738      1
   739   734   739      1
   740   739   740      1
   741   739   741      1
   742   739   742      1
   743   740   743      1
   744   740   744      1
   745   740   745      1
   746   745   746      1
   747   745   747      1
   748   745   748      1
   749   746   749      1
   750   746   750      1
   751   746   751      1
   752   751   752      1
   753   751   753      1
   754   751   754      1
   755   752   755      1
   756   752   756      1
   757   752   757      1
   758   757   758      1
   759   757   759      1
   760   757   760      1
   761   758   761      1
   762   758   762      1
   763   758   763      1
   764   763   764      1
   765   763   765      1
   766   763   766      1
   767   764   767      1
   768   764   768      1
   769   764   769      1
   770   769   770      1
   771   769   771      1
   772   769   772      1
   773   770   773      1
   774   770   774      1
   775   770   775      1
   776   775   776      1
   777   775   777      1
   778   775   778      1
   779   776   779      1
   780   776   780      1
   781   776   781      1
   782   781   782      1
   783   781   783      1
   784   781   784      1
   785   782   785      1
   786   782   786      1
   787   782   787      1
   788   787   788      1
   789   787   789      1
   790   787   790      1
   791   788   791      1
   792   788   792      1
   793   788   793      1
   794   793   794      1
   795   793   795      1
   796   793   796      1
   797   794   797      1
   798   794   798      1
   799   794   799      1
   800   799   800      1
   801   799   801      1
   802   799   802      1
   803   800   803      1
   804   800   804      1
   805   800   805      1
   806   805   806      1
   807   805   807      1
   808   805   808      1
   809   806   809      1
   810   806   810      1
   811   806   811      1
   812   811   812      1
   813   811   813      1
   814   811   814      1
   815   812   815      1
   816   812   816      1
   817   812   817      1
   818   817   818      1
   819   817   819      1
   820   817   820      1
   821   818   821      1
   822   818   822      1
   823   818   823      1
   824   823   824      1
   825   823   825      1
   826   823   826      1
   827   824   827      1
   828   824   828      1
   829   824   829      1
   830   829   830      1
   831   829   831      1
   832   829   832      1
   833   830   833      1
   834   830   834      1
   835   830   835      1
   836   835   836      1
   837   835   837      1
   838   835   838      1
   839   836   839      1
   840   836   840      1
   841   836   841      1
   842   841   842      1
   843   841   843      1
   844   841   844      1
   845   842   845      1
   846   842   846      1
   847   842   847      1
   848   847   848      1
   849   847   849      1
   850   847   850      1
   851   848   851      1
   852   848   852      1
   853   848   853      1
   854   853   854      1
   855   853   855      1
   856   853   856      1
   857   854   857      1
   858   854   858      1
   859   854   859      1
   860   859   860      1
   861   859   861      1
   862   859   862      1
   863   860   863      1
   864   860   864      1
   865   860   865      1
   866   865   866      1
   867   865   867      1
   868   865   868      1
   869   866   869      1
   870   866   870      1
   871   866   871      1
   872   871   872      1
   873   871   873      1
   874   871   874      1
   875   872   875      1
   876   872   876      1
   877   872   877      1
   878   877   878      1
   879   877   879      1
   880   877   880      1
   881   878   881      1
   882   878   882      1
   883   878   883      1
   884   883   884      1
   885   883   885      1
   886   883   886      1
   887   884   887      1
   888   884   888      1
   889   884   889      1
   890   889   890      1
   891   889   891      1
   892   889   892      1
   893   890   893      1
   894   890   894      1
   895   890   895      1
   896   895   896      1
   897   895   897      1
   898   895   898      1
   899   896   899      1
   900   896   900      1
   901   896   901      1
   902   901   902      1
   903   901   903      1
   904   901   904      1
   905   902   905      1
   906   902   906      1
   907   902   907      1
   908   907   908      1
   909   907   909      1
   910   907   910      1
   911   908   911      1
   912   908   912      1
   913   908   913      1
   914   913   914      1
   915   913   915      1
   916   913   916      1
   917   914   917      1
   918   914   918      1
   919   914   919      1
   920   919   920      1
   921   919   921      1
   922   919   922      1
   923   920   923      1
   924   920   924      1
   925   920   925      1
   926   925   926      1
   927   925   927      1
   928   925   928      1
   929   926   929      1
   930   926   930      1
   931   926   931      1
   932   931   932      1
   933   931   933      1
   934   931   934      1
   935   932   935      1
   936   932   936      1
   937   932   937      1
   938   937   938      1
   939   937   939      1
   940   937   940      1
   941   938   941      1
   942   938   942      1
   943   938   943      1
   944   943   944      1
   945   943   945      1
   946   943   946      1
   947   944   947      1
   948   944   948      1
   949   944   949      1
   950   949   950      1
   951   949   951      1
   952   949   952      1
   953   950   953      1
   954   950   954      1
   955   950   955      1
   956   955   956      1
   957   955   957      1
   958   955   958      1
   959   956   959      1
   960   956   960      1
   961   956   961      1
   962   961   962      1
   963   961   963      1
   964   961   964      1
   965   962   965      1
   966   962   966      1
   967   962   967      1
   968   967   968      1
   969   967   969      1
   970   967   970      1
   971   968   971      1
   972   968   972      1
   973   968   973      1
   974   973   974      1
   975   973   975      1
   976   973   976      1
   977   974   977      1
   978   974   978      1
   979   974   979      1
   980   979   980      1
   981   979   981      1
   982   979   982      1
   983   980   983      1
   984   980   984      1
   985   980   985      1
   986   985   986      1
   987   985   987      1
   988   985   988      1
   989   986   989      1
   990   986   990      1
   991   986   991      1
   992   991   992      1
   993   991   993      1
   994   991   994      1
   995   992   995      1
   996   992   996      1
   997   992   997      1
   998   997   998      1
   999   997   999      1
  1000   997  1000      1
  1001   998  1001      1
  1002   998  1002      1
  1003   998  1003      1
  1004  1003  1004      1
  1005  1003  1005      1
  1006  1003  1006      1
  1007  1004  1007      1
  1008  1004  1008      1
  1009  1004  1009      1
  1010  1009  1010      1
  1011  1009  1011      1
  1012  1009  1012      1
  1013  1010  1013      1
  1014  1010  1014      1
  1015  1010  1015      1
  1016  1015  1016      1
  1017  1015  1017      1
  1018  1015  1018      1
  1019  1016  1019      1
  1020  1016  1020      1
  1021  1016  1021      1
  1022  1021  1022      1
  1023  1021  1023      1
  1024  1021  1024      1
  1025  1022  1025      1
  1026  1022  1026      1
  1027  1022  1027      1
  1028  1027  1028      1
  1029  1027  1029      1
  1030  1027  1030      1
  1031  1028  1031      1
  1032  1028  1032      1
  1033  1028  1033      1
  1034  1033  1034      1
  1035  1033  1035      1
  1036  1033  1036      1
  1037  1034  1037      1
  1038  1034  1038      1
  1039  1034  1039      1
  1040  1039  1040      1
  1041  1039  1041      1
  1042  1039  1042      1
  1043  1040  1043      1
  1044  1040  1044      1
  1045  1040  1045      1
  1046  1045  1046      1
  1047  1045  1047      1
  1048  1045  1048      1
  1049  1046  1049      1
  1050  1046  1050      1
  1051  1046  1051      1
  1052  1051  1052      1
  1053  1051  1053      1
  1054  1051  1054      1
  1055  1052  1055      1
  1056  1052  1056      1
  1057  1052  1057      1
  1058  1057  1058      1
  1059  1057  1059      1
  1060  1057  1060      1
  1061  1058  1061      1
  1062  1058  1062      1
  1063  1058  1063      1
  1064  1063  1064      1
  1065  1063  1065      1
  1066  1063  1066      1
  1067  1064  1067      1
  1068  1064  1068      1
  1069  1064  1069      1
  1070  1069  1070      1
  1071  1069  1071      1
  1072  1069  1072      1
  1073  1070  1073      1
  1074  1070  1074      1
  1075  1070  1075      1
  1076  1075  1076      1
  1077  1075  1077      1
  1078  1075  1078      1
  1079  1076  1079      1
  1080  1076  1080      1
  1081  1076  1081      1
  1082  1081  1082      1
  1083  1081  1083      1
  1084  1081  1084      1
  1085  1082  1085      1
  1086  1082  1086      1
  1087  1082  1087      1
  1088  1087  1088      1
  1089  1087  1089      1
  1090  1087  1090      1
  1091  1088  1091      1
  1092  1088  1092      1
  1093  1088  1093      1
  1094  1093  1094      1
  1095  1093  1095      1
  1096  1093  1096      1
  1097  1094  1097      1
  1098  1094  1098      1
  1099  1094  1099      1
  1100  1099  1100      1
  1101  1099  1101      1
  1102  1099  1102      1
  1103  1100  1103      1
  1104  1100  1104      1
  1105  1100  1105      1
  1106  1105  1106      1
  1107  1105  1107      1
  1108  1105  1108      1
  1109  1106  1109      1
  1110  1106  1110      1
  1111  1106  1111      1
  1112  1111  1112      1
  1113  1111  1113      1
  1114  1111  1114      1
  1115  1112  1115      1
  1116  1112  1116      1
  1117  1112  1117      1
  1118  1117  1118      1
  1119  1117  1119      1
  1120  1117  1120      1
  1121  1118  1121      1
  1122  1118  1122      1
  1123  1118  1123      1
  1124  1123  1124      1
  1125  1123  1125      1
  1126  1123  1126      1
  1127  1124  1127      1
  1128  1124  1128      1
  1129  1124  1129      1
  1130  1129  1130      1
  1131  1129  1131      1
  1132  1129  1132      1
  1133  1130  1133      1
  1134  1130  1134      1
  1135  1130  1135      1
  1136  1135  1136      1
  1137  1135  1137      1
  1138  1135  1138      1
  1139  1136  1139      1
  1140  1136  1140      1
  1141  1136  1141      1
  1142  1141  1142      1
  1143  1141  1143      1
  1144  1141  1144      1
  1145  1142  1145      1
  1146  1142  1146      1
  1147  1142  1147      1
  1148  1147  1148      1
  1149  1147  1149      1
  1150  1147  1150      1
  1151  1148  1151      1
  1152  1148  1152      1
  1153  1148  1153      1
  1154  1153  1154      1
  1155  1153  1155      1
  1156  1153  1156      1
  1157  1154  1157      1
  1158  1154  1158      1
  1159  1154  1159      1
  1160  1159  1160      1
  1161  1159  1161      1
  1162  1159  1162      1
  1163  1160  1163      1
  1164  1160  1164      1
  1165  1160  1165      1
  1166  1165  1166      1
  1167  1165  1167      1
  1168  1165  1168      1
  1169  1166  1169      1
  1170  1166  1170      1
  1171  1166  1171      1
  1172  1171  1172      1
  1173  1171  1173      1
  1174  1171  1174      1
  1175  1172  1175      1
  1176  1172  1176      1
  1177  1172  1177      1
  1178  1177  1178      1
  1179  1177  1179      1
  1180  1177  1180      1
  1181  1178  1181      1
  1182  1178  1182      1
  1183  1178  1183      1
  1184  1183  1184      1
  1185  1183  1185      1
  1186  1183  1186      1
  1187  1184  1187      1
  1188  1184  1188      1
  1189  1184  1189      1
  1190  1189  1190      1
  1191  1189  1191      1
  1192  1189  1192      1
  1193  1190  1193      1
  1194  1190  1194      1
  1195  1190  1195      1
  1196  1195  1196      1
  1197  1195  1197      1
  1198  1195  1198      1
  1199  1196  1199      1
  1200  1196  1200      1
  1201  1196  1201      1
  1202  1201  1202      1
  1203  1201  1203      1
  1204  1201  1204      1
  1205  1202  1205      1
  1206  1202  1206      1
  1207  1202  1207      1
  1208  1207  1208      1
  1209  1207  1209      1
  1210  1207  1210      1
  1211  1208  1211      1
  1212  1208  1212      1
  1213  1208  1213      1
  1214  1213  1214      1
  1215  1213  1215      1
  1216  1213  1216      1
  1217  1214  1217      1
  1218  1214  1218      1
  1219  1214  1219      1
  1220  1219  1220      1
  1221  1219  1221      1
  1222  1219  1222      1
  1223  1220  1223      1
  1224  1220  1224      1
  1225  1220  1225      1
  1226  1225  1226      1
  1227  1225  1227      1
  1228  1225  1228      1
  1229  1226  1229      1
  1230  1226  1230      1
  1231  1226  1231      1
  1232  1231  1232      1
  1233  1231  1233      1
  1234  1231  1234      1
  1235  1232  1235      1
  1236  1232  1236      1
  1237  1232  1237      1
  1238  1237  1238      1
  1239  1237  1239      1
  1240  1237  1240      1
  1241  1238  1241      1
  1242  1238  1242      1
  1243  1238  1243      1
  1244  1243  1244      1
  1245  1243  1245      1
  1246  1243  1246      1
  1247  1244  1247      1
  1248  1244  1248      1
  1249  1244  1249      1
  1250  1249  1250      1
  1251  1249  1251      1
  1252  1249  1252      1
  1253  1250  1253      1
  1254  1250  1254      1
  1255  1250  1255      1
  1256  1255  1256      1
  1257  1255  1257      1
  1258  1255  1258      1
  1259  1256  1259      1
  1260  1256  1260      1
  1261  1256  1261      1
  1262  1261  1262      1
  1263  1261  1263      1
  1264  1261  1264      1
  1265  1262  1265      1
  1266  1262  1266      1
  1267  1262  1267      1
  1268  1267  1268      1
  1269  1267  1269      1
  1270  1267  1270      1
  1271  1268  1271      1
  1272  1268  1272      1
  1273  1268  1273      1
  1274  1273  1274      1
  1275  1273  1275      1
  1276  1273  1276      1
  1277  1274  1277      1
  1278  1274  1278      1
  1279  1274  1279      1
  1280  1279  1280      1
  1281  1279  1281      1
  1282  1279  1282      1
  1283  1280  1283      1
  1284  1280  1284      1
  1285  1280  1285      1
  1286  1285  1286      1
  1287  1285  1287      1
  1288  1285  1288      1
  1289  1286  1289      1
  1290  1286  1290      1
  1291  1286  1291      1
  1292  1291  1292      1
  1293  1291  1293      1
  1294  1291  1294      1
  1295  1292  1295      1
  1296  1292  1296      1
  1297  1292  1297      1
  1298  1297  1298      1
  1299  1297  1299      1
  1300  1297  1300      1
  1301  1298  1301      1
  1302  1298  1302      1
  1303  1298  1303      1
  1304  1303  1304      1
  1305  1303  1305      1
  1306  1303  1306      1
  1307  1304  1307      1
  1308  1304  1308      1
  1309  1304  1309      1
  1310  1309  1310      1
  1311  1309  1311      1
  1312  1309  1312      1
  1313  1310  1313      1
  1314  1310  1314      1
  1315  1310  1315      1
  1316  1315  1316      1
  1317  1315  1317      1
  1318  1315  1318      1
  1319  1316  1319      1
  1320  1316  1320      1
  1321  1316  1321      1
  1322  1321  1322      1
  1323  1321  1323      1
  1324  1321  1324      1
  1325  1322  1325      1
  1326  1322  1326      1
  1327  1322  1327      1
  1328  1327  1328      1
  1329  1327  1329      1
  1330  1327  1330      1
  1331  1328  1331      1
  1332  1328  1332      1
  1333  1328  1333      1
  1334  1333  1334      1
  1335  1333  1335      1
  1336  1333  1336      1
  1337  1334  1337      1
  1338  1334  1338      1
  1339  1334  1339      1
  1340  1339  1340      1
  1341  1339  1341      1
  1342  1339  1342      1
  1343  1340  1343      1
  1344  1340  1344      1
  1345  1340  1345      1
  1346  1345  1346      1
  1347  1345  1347      1
  1348  1345  1348      1
  1349  1346  1349      1
  1350  1346  1350      1
  1351  1346  1351      1
  1352  1351  1352      1
  1353  1351  1353      1
  1354  1351  1354      1
  1355  1352  1355      1
  1356  1352  1356      1
  1357  1352  1357      1
  1358  1357  1358      1
  1359  1357  1359      1
  1360  1357  1360      1
  1361  1358  1361      1
  1362  1358  1362      1
  1363  1358  1363      1
  1364  1363  1364      1
  1365  1363  1365      1
  1366  1363  1366      1
  1367  1364  1367      1
  1368  1364  1368      1
  1369  1364  1369      1
  1370  1369  1370      1
  1371  1369  1371      1
  1372  1369  1372      1
  1373  1370  1373      1
  1374  1370  1374      1
  1375  1370  1375      1
  1376  1375  1376      1
  1377  1375  1377      1
  1378  1375  1378      1
  1379  1376  1379      1
  1380  1376  1380      1
  1381  1376  1381      1
  1382  1381  1382      1
  1383  1381  1383      1
  1384  1381  1384      1
  1385  1382  1385      1
  1386  1382  1386      1
  1387  1382  1387      1
  1388  1387  1388      1
  1389  1387  1389      1
  1390  1387  1390      1
  1391  1388  1391      1
  1392  1388  1392      1
  1393  1388  1393      1
  1394  1393  1394      1
  1395  1393  1395      1
  1396  1393  1396      1
  1397  1394  1397      1
  1398  1394  1398      1
  1399  1394  1399      1
  1400  1399  1400      1
  1401  1399  1401      1
  1402  1399  1402      1
  1403  1400  1403      1
  1404  1400  1404      1
  1405  1400  1405      1
  1406  1405  1406      1
  1407  1405  1407      1
  1408  1405  1408      1
  1409  1406  1409      1
  1410  1406  1410      1
  1411  1406  1411      1
  1412  1411  1412      1
  1413  1411  1413      1
  1414  1411  1414      1
  1415  1412  1415      1
  1416  1412  1416      1
  1417  1412  1417      1
  1418  1417  1418      1
  1419  1417  1419      1
  1420  1417  1420      1
  1421  1418  1421      1
  1422  1418  1422      1
  1423  1418  1423      1
  1424  1423  1424      1
  1425  1423  1425      1
  1426  1423  1426      1
  1427  1424  1427      1
  1428  1424  1428      1
  1429  1424  1429      1
  1430  1429  1430      1
  1431  1429  1431      1
  1432  1429  1432      1
  1433  1430  1433      1
  1434  1430  1434      1
  1435  1430  1435      1
  1436  1435  1436      1
  1437  1435  1437      1
  1438  1435  1438      1
  1439  1436  1439      1
  1440  1436  1440      1
  1441  1436  1441      1
  1442  1441  1442      1
  1443  1441  1443      1
  1444  1441  1444      1
  1445  1442  1445      1
  1446  1442  1446      1
  1447  1442  1447      1
  1448  1447  1448      1
  1449  1447  1449      1
  1450  1447  1450      1
  1451  1448  1451      1
  1452  1448  1452      1
  1453  1448  1453      1
  1454  1453  1454      1
  1455  1453  1455      1
  1456  1453  1456      1
  1457  1454  1457      1
  1458  1454  1458      1
  1459  1454  1459      1
  1460  1459  1460      1
  1461  1459  1461      1
  1462  1459  1462      1
  1463  1460  1463      1
  1464  1460  1464      1
  1465  1460  1465      1
  1466  1465  1466      1
  1467  1465  1467      1
  1468  1465  1468      1
  1469  1466  1469      1
  1470  1466  1470      1
  1471  1466  1471      1
  1472  1471  1472      1
  1473  1471  1473      1
  1474  1471  1474      1
  1475  1472  1475      1
  1476  1472  1476      1
  1477  1472  1477      1
  1478  1477  1478      1
  1479  1477  1479      1
  1480  1477  1480      1
  1481  1478  1481      1
  1482  1478  1482      1
  1483  1478  1483      1
  1484  1483  1484      1
  1485  1483  1485      1
  1486  1483  1486      1
  1487  1484  1487      1
  1488  1484  1488      1
  1489  1484  1489      1
  1490  1489  1490      1
  1491  1489  1491      1
  1492  1489  1492      1
  1493  1490  1493      1
  1494  1490  1494      1
  1495  1490  1495      1
  1496  1495  1496      1
  1497  1495  1497      1
  1498  1495  1498      1
  1499  1496  1499      1
  1500  1496  1500      1
  1501  1496  1501      1
  1502  1501  1502      1
  1503  1501  1503      1
  1504  1501  1504      1
  1505  1502  1505      1
  1506  1502  1506      1
  1507  1502  1507      1
  1508  1507  1508      1
  1509  1507  1509      1
  1510  1507  1510      1
  1511  1508  1511      1
  1512  1508  1512      1
  1513  1508  1513      1
  1514  1513  1514      1
  1515  1513  1515      1
  1516  1513  1516      1
  1517  1514  1517      1
  1518  1514  1518      1
  1519  1514  1519      1
  1520  1519  1520      1
  1521  1519  1521      1
  1522  1519  1522      1
  1523  1520  1523      1
  1524  1520  1524      1
  1525  1520  1525      1
  1526  1525  1526      1
  1527  1525  1527      1
  1528  1525  1528      1
  1529  1526  1529      1
  1530  1526  1530      1
  1531  1526  1531      1
  1532  1531  1532      1
  1533  1531  1533      1
  1534  1531  1534      1
  1535  1532  1535      1
  1536  1532  1536      1
  1537  1532  1537      1
  1538  1537  1538      1
  1539  1537  1539      1
  1540  1537  1540      1
  1541  1538  1541      1
  1542  1538  1542      1
  1543  1538  1543      1
  1544  1543  1544      1
  1545  1543  1545      1
  1546  1543  1546      1
  1547  1544  1547      1
  1548  1544  1548      1
  1549  1544  1549      1
  1550  1549  1550      1
  1551  1549  1551      1
  1552  1549  1552      1
  1553  1550  1553      1
  1554  1550  1554      1
  1555  1550  1555      1
  1556  1555  1556      1
  1557  1555  1557      1
  1558  1555  1558      1
  1559  1556  1559      1
  1560  1556  1560      1
  1561  1556  1561      1
  1562  1561  1562      1
  1563  1561  1563      1
  1564  1561  1564      1
  1565  1562  1565      1
  1566  1562  1566      1
  1567  1562  1567      1
  1568  1567  1568      1
  1569  1567  1569      1
  1570  1567  1570      1
  1571  1568  1571      1
  1572  1568  1572      1
  1573  1568  1573      1
  1574  1573  1574      1
  1575  1573  1575      1
  1576  1573  1576      1
  1577  1574  1577      1
  1578  1574  1578      1
  1579  1574  1579      1
  1580  1579  1580      1
  1581  1579  1581      1
  1582  1579  1582      1
  1583  1580  1583      1
  1584  1580  1584      1
  1585  1580  1585      1
  1586  1585  1586      1
  1587  1585  1587      1
  1588  1585  1588      1
  1589  1586  1589      1
  1590  1586  1590      1
  1591  1586  1591      1
  1592  1591  1592      1
  1593  1591  1593      1
  1594  1591  1594      1
  1595  1592  1595      1
  1596  1592  1596      1
  1597  1592  1597      1
  1598  1597  1598      1
  1599  1597  1599      1
  1600  1597  1600      1
  1601  1598  1601      1
  1602  1598  1602      1
  1603  1598  1603      1
  1604  1603  1604      1
  1605  1603  1605      1
  1606  1603  1606      1
  1607  1604  1607      1
  1608  1604  1608      1
  1609  1604  1609      1
  1610  1609  1610      1
  1611  1609  1611      1
  1612  1609  1612      1
  1613  1610  1613      1
  1614  1610  1614      1
  1615  1610  1615      1
  1616  1615  1616      1
  1617  1615  1617      1
  1618  1615  1618      1
  1619  1616  1619      1
  1620  1616  1620      1
  1621  1616  1621      1
  1622  1621  1622      1
  1623  1621  1623      1
  1624  1621  1624      1
  1625  1622  1625      1
  1626  1622  1626      1
  1627  1622  1627      1
  1628  1627  1628      1
  1629  1627  1629      1
  1630  1627  1630      1
  1631  1628  1631      1
  1632  1628  1632      1
  1633  1628  1633      1
  1634  1633  1634      1
  1635  1633  1635      1
  1636  1633  1636      1
  1637  1634  1637      1
  1638  1634  1638      1
  1639  1634  1639      1
  1640  1639  1640      1
  1641  1639  1641      1
  1642  1639  1642      1
  1643  1640  1643      1
  1644  1640  1644      1
  1645  1640  1645      1
  1646  1645  1646      1
  1647  1645  1647      1
  1648  1645  1648      1
  1649  1646  1649      1
  1650  1646  1650      1
  1651  1646  1651      1
  1652  1651  1652      1
  1653  1651  1653      1
  1654  1651  1654      1
  1655  1652  1655      1
  1656  1652  1656      1
  1657  1652  1657      1
  1658  1657  1658      1
  1659  1657  1659      1
  1660  1657  1660      1
  1661  1658  1661      1
  1662  1658  1662      1
  1663  1658  1663      1
  1664  1663  1664      1
  1665  1663  1665      1
  1666  1663  1666      1
  1667  1664  1667      1
  1668  1664  1668      1
  1669  1664  1669      1
  1670  1669  1670      1
  1671  1669  1671      1
  1672  1669  1672      1
  1673  1670  1673      1
  1674  1670  1674      1
  1675  1670  1675      1
  1676  1675  1676      1
  1677  1675  1677      1
  1678  1675  1678      1
  1679  1676  1679      1
  1680  1676  1680      1
  1681  1676  1681      1
  1682  1681  1682      1
  1683  1681  1683      1
  1684  1681  1684      1
  1685  1682  1685      1
  1686  1682  1686      1
  1687  1682  1687      1
  1688  1687  1688      1
  1689  1687  1689      1
  1690  1687  1690      1
  1691  1688  1691      1
  1692  1688  1692      1
  1693  1688  1693      1
  1694  1693  1694      1
  1695  1693  1695      1
  1696  1693  1696      1
  1697  1694  1697      1
  1698  1694  1698      1
  1699  1694  1699      1
  1700  1699  1700      1
  1701  1699  1701      1
  1702  1699  1702      1
  1703  1700  1703      1
  1704  1700  1704      1
  1705  1700  1705      1
  1706  1705  1706      1
  1707  1705  1707      1
  1708  1705  1708      1
  1709  1706  1709      1
  1710  1706  1710      1
  1711  1706  1711      1
  1712  1711  1712      1
  1713  1711  1713      1
  1714  1711  1714      1
  1715  1712  1715      1
  1716  1712  1716      1
  1717  1712  1717      1
  1718  1717  1718      1
  1719  1717  1719      1
  1720  1717  1720      1
  1721  1718  1721      1
  1722  1718  1722      1
  1723  1718  1723      1
  1724  1723  1724      1
  1725  1723  1725      1
  1726  1723  1726      1
  1727  1724  1727      1
  1728  1724  1728      1
  1729  1724  1729      1
  1730  1729  1730      1
  1731  1729  1731      1
  1732  1729  1732      1
  1733  1730  1733      1
  1734  1730  1734      1
  1735  1730  1735      1
  1736  1735  1736      1
  1737  1735  1737      1
  1738  1735  1738      1
  1739  1736  1739      1
  1740  1736  1740      1
  1741  1736  1741      1
  1742  1741  1742      1
  1743  1741  1743      1
  1744  1741  1744      1
  1745  1742  1745      1
  1746  1742  1746      1
  1747  1742  1747      1
  1748  1747  1748      1
  1749  1747  1749      1
  1750  1747  1750      1
  1751  1748  1751      1
  1752  1748  1752      1
  1753  1748  1753      1
  1754  1753  1754      1
  1755  1753  1755      1
  1756  1753  1756      1
  1757  1754  1757      1
  1758  1754  1758      1
  1759  1754  1759      1
  1760  1759  1760      1
  1761  1759  1761      1
  1762  1759  1762      1
  1763  1760  1763      1
  1764  1760  1764      1
  1765  1760  1765      1
  1766  1765  1766      1
  1767  1765  1767      1
  1768  1765  1768      1
  1769  1766  1769      1
  1770  1766  1770      1
  1771  1766  1771      1
  1772  1771  1772      1
  1773  1771  1773      1
  1774  1771  1774      1
  1775  1772  1775      1
  1776  1772  1776      1
  1777  1772  1777      1
  1778  1777  1778      1
  1779  1777  1779      1
  1780  1777  1780      1
  1781  1778  1781      1
  1782  1778  1782      1
  1783  1778  1783      1
  1784  1783  1784      1
  1785  1783  1785      1
  1786  1783  1786      1
  1787  1784  1787      1
  1788  1784  1788      1
  1789  1784  1789      1
  1790  1789  1790      1
  1791  1789  1791      1
  1792  1789  1792      1
  1793  1790  1793      1
  1794  1790  1794      1
  1795  1790  1795      1
  1796  1795  1796      1
  1797  1795  1797      1
  1798  1795  1798      1
  1799  1796  1799      1
  1800  1796  1800      1
  1801  1796  1801      1
  1802  1801  1802      1
  1803  1801  1803      1
  1804  1801  1804      1
  1805  1802  1805      1
  1806  1802  1806      1
  1807  1802  1807      1
  1808  1807  1808      1
  1809  1807  1809      1
  1810  1807  1810      1
  1811  1808  1811      1
  1812  1808  1812      1
  1813  1808  1813      1
  1814  1813  1814      1
  1815  1813  1815      1
  1816  1813  1816      1
  1817  1814  1817      1
  1818  1814  1818      1
  1819  1814  1819      H
