###
### Created by PolyChef-cpp17 on Thu Feb 27 19:40:28 2025
###

@<TRIPOS>MOLECULE
NO_INFO
428 427 1 0 0
SMALL
USER_CHARGES


@<TRIPOS>ATOM
      1 C          69.2798   87.8287  -39.3449 C.3       0        0    0.0000
      2 C          67.8706   87.6682  -38.7641 C.3       0        0    0.0000
      3 H          69.9271   87.0166  -38.9913 H         0        0    0.0000
      4 H          69.7280   88.7655  -38.9913 H         0        0    0.0000
      5 H          67.3721   88.6440  -38.7114 H         0        0    0.0000
      6 H          67.2612   87.0384  -39.4240 H         0        0    0.0000
      7 C          67.8873   87.0313  -37.3318 C.3       1        0    0.0000
      8 C          69.1653   87.3745  -36.5584 C.3       1        0    0.0000
      9 H          67.0072   87.3819  -36.7786 H         1        0    0.0000
     10 H          67.7864   85.9431  -37.4275 H         1        0    0.0000
     11 H          70.0456   87.1946  -37.1878 H         1        0    0.0000
     12 H          69.1744   88.4410  -36.3014 H         1        0    0.0000
     13 C          69.3058   86.5362  -35.2412 C.3       2        0    0.0000
     14 C          70.2088   87.2218  -34.2099 C.3       2        0    0.0000
     15 H          68.3071   86.3732  -34.8175 H         2        0    0.0000
     16 H          69.7066   85.5464  -35.4931 H         2        0    0.0000
     17 H          71.2621   87.0955  -34.4891 H         2        0    0.0000
     18 H          70.0134   88.3012  -34.1974 H         2        0    0.0000
     19 C          69.9976   86.6534  -32.7643 C.3       3        0    0.0000
     20 C          70.6290   87.5468  -31.6909 C.3       3        0    0.0000
     21 H          68.9214   86.5470  -32.5798 H         3        0    0.0000
     22 H          70.4269   85.6450  -32.7146 H         3        0    0.0000
     23 H          71.7182   87.5761  -31.8189 H         3        0    0.0000
     24 H          70.2710   88.5779  -31.8014 H         3        0    0.0000
     25 C          70.3039   87.0519  -30.2394 C.3       4        0    0.0000
     26 C          70.9188   87.9566  -29.1659 C.3       4        0    0.0000
     27 H          69.2146   87.0087  -30.1162 H         4        0    0.0000
     28 H          70.6749   86.0259  -30.1243 H         4        0    0.0000
     29 H          72.0088   87.9932  -29.2840 H         4        0    0.0000
     30 H          70.5541   88.9842  -29.2860 H         4        0    0.0000
     31 C          70.5840   87.4681  -27.7143 C.3       5        0    0.0000
     32 C          71.2167   88.3605  -26.6408 C.3       5        0    0.0000
     33 H          69.4941   87.4465  -27.5911 H         5        0    0.0000
     34 H          70.9347   86.4350  -27.5992 H         5        0    0.0000
     35 H          72.3065   88.3831  -26.7648 H         5        0    0.0000
     36 H          70.8652   89.3934  -26.7552 H         5        0    0.0000
     37 C          70.8834   87.8711  -25.1893 C.3       6        0    0.0000
     38 C          71.4883   88.7825  -24.1158 C.3       6        0    0.0000
     39 H          69.7934   87.8253  -25.0732 H         6        0    0.0000
     40 H          71.2566   86.8468  -25.0671 H         6        0    0.0000
     41 H          72.5789   88.8234  -24.2281 H         6        0    0.0000
     42 H          71.1200   89.8081  -24.2419 H         6        0    0.0000
     43 C          71.1476   88.2981  -22.6644 C.3       7        0    0.0000
     44 C          72.2916   88.5640  -21.6797 C.3       7        0    0.0000
     45 H          70.2354   88.8057  -22.3272 H         7        0    0.0000
     46 H          70.9186   87.2256  -22.6942 H         7        0    0.0000
     47 H          73.2349   88.1786  -22.0861 H         7        0    0.0000
     48 H          72.4259   89.6441  -21.5419 H         7        0    0.0000
     49 C          72.0370   87.9040  -20.2808 C.3       8        0    0.0000
     50 C          72.1368   88.9160  -19.1342 C.3       8        0    0.0000
     51 H          71.0440   87.4375  -20.2854 H         8        0    0.0000
     52 H          72.7640   87.0957  -20.1335 H         8        0    0.0000
     53 H          73.1862   89.0568  -18.8470 H         8        0    0.0000
     54 H          71.7662   89.8948  -19.4630 H         8        0    0.0000
     55 C          71.3236   88.4658  -17.8718 C.3       9        0    0.0000
     56 C          72.1772   88.4709  -16.5989 C.3       9        0    0.0000
     57 H          70.4619   89.1338  -17.7496 H         9        0    0.0000
     58 H          70.9206   87.4613  -18.0506 H         9        0    0.0000
     59 H          73.1610   88.0310  -16.8039 H         9        0    0.0000
     60 H          72.3555   89.5020  -16.2696 H         9        0    0.0000
     61 C          71.5025   87.6761  -15.4281 C.3      10        0    0.0000
     62 C          71.8908   88.2280  -14.0520 C.3      10        0    0.0000
     63 H          70.4136   87.7154  -15.5555 H        10        0    0.0000
     64 H          71.7908   86.6205  -15.5050 H        10        0    0.0000
     65 H          72.9596   88.0622  -13.8681 H        10        0    0.0000
     66 H          71.7308   89.3130  -14.0229 H        10        0    0.0000
     67 C          71.0699   87.5650  -12.8927 C.3      11        0    0.0000
     68 C          71.5705   87.9920  -11.5085 C.3      11        0    0.0000
     69 H          70.0126   87.8334  -13.0097 H        11        0    0.0000
     70 H          71.1312   86.4744  -12.9949 H        11        0    0.0000
     71 H          72.6364   87.7543  -11.4041 H        11        0    0.0000
     72 H          71.4774   89.0791  -11.3937 H        11        0    0.0000
     73 C          70.7808   87.2921  -10.3492 C.3      12        0    0.0000
     74 C          71.2767   87.7245   -8.9649 C.3      12        0    0.0000
     75 H          69.7143   87.5257  -10.4565 H        12        0    0.0000
     76 H          70.8780   86.2051  -10.4610 H        12        0    0.0000
     77 H          72.3427   87.4889   -8.8568 H        12        0    0.0000
     78 H          71.1816   88.8117   -8.8539 H        12        0    0.0000
     79 C          70.4850   87.0270   -7.8056 C.3      13        0    0.0000
     80 C          70.9803   87.4601   -6.4213 C.3      13        0    0.0000
     81 H          69.4189   87.2620   -7.9141 H        13        0    0.0000
     82 H          70.5808   85.9397   -7.9161 H        13        0    0.0000
     83 H          72.0464   87.2253   -6.3128 H        13        0    0.0000
     84 H          70.8844   88.5474   -6.3107 H        13        0    0.0000
     85 C          70.1886   86.7625   -5.2620 C.3      14        0    0.0000
     86 C          70.6883   87.1905   -3.8778 C.3      14        0    0.0000
     87 H          69.1231   87.0014   -5.3677 H        14        0    0.0000
     88 H          70.2804   85.6752   -5.3754 H        14        0    0.0000
     89 H          71.7538   86.9514   -3.7720 H        14        0    0.0000
     90 H          70.5968   88.2779   -3.7644 H        14        0    0.0000
     91 C          69.8964   86.4932   -2.7184 C.3      15        0    0.0000
     92 C          70.3685   86.9522   -1.3344 C.3      15        0    0.0000
     93 H          68.8276   86.7075   -2.8415 H        15        0    0.0000
     94 H          70.0130   85.4065   -2.8143 H        15        0    0.0000
     95 H          71.4227   86.6856   -1.1890 H        15        0    0.0000
     96 H          70.3067   88.0449   -1.2592 H        15        0    0.0000
     97 C          69.5226   86.3174   -0.1774 C.3      16        0    0.0000
     98 C          69.9317   86.8493    1.2006 C.3      16        0    0.0000
     99 H          68.4610   86.5248   -0.3606 H        16        0    0.0000
    100 H          69.6407   85.2272   -0.2100 H        16        0    0.0000
    101 H          69.1072   87.4224    1.6426 H        16        0    0.0000
    102 H          70.1348   86.0133    1.8814 H        16        0    0.0000
    103 C          71.2026   87.7643    1.1308 C.3      17        0    0.0000
    104 C          71.4921   88.4592    2.4659 C.3      17        0    0.0000
    105 H          72.0626   87.1528    0.8308 H        17        0    0.0000
    106 H          71.0571   88.5120    0.3413 H        17        0    0.0000
    107 H          70.6181   89.0406    2.7846 H        17        0    0.0000
    108 H          71.6749   87.7113    3.2474 H        17        0    0.0000
    109 C          72.7316   89.4152    2.3816 C.3      18        0    0.0000
    110 C          73.4910   89.5002    3.7101 C.3      18        0    0.0000
    111 H          73.4001   89.0584    1.5883 H        18        0    0.0000
    112 H          72.3889   90.4127    2.0797 H        18        0    0.0000
    113 H          73.1711   90.3875    4.2702 H        18        0    0.0000
    114 H          73.2537   88.6305    4.3353 H        18        0    0.0000
    115 C          75.0437   89.5655    3.5038 C.3      19        0    0.0000
    116 C          75.8055   88.7753    4.5734 C.3      19        0    0.0000
    117 H          75.2845   89.1773    2.5064 H        19        0    0.0000
    118 H          75.3582   90.6165    3.5172 H        19        0    0.0000
    119 H          76.1432   89.4496    5.3702 H        19        0    0.0000
    120 H          75.1402   88.0405    5.0435 H        19        0    0.0000
    121 C          77.0502   88.0259    3.9845 C.3      20        0    0.0000
    122 C          77.7702   87.1781    5.0389 C.3      20        0    0.0000
    123 H          76.7199   87.3912    3.1528 H        20        0    0.0000
    124 H          77.7407   88.7659    3.5611 H        20        0    0.0000
    125 H          78.0039   87.7905    5.9185 H        20        0    0.0000
    126 H          77.1139   86.3693    5.3834 H        20        0    0.0000
    127 C          79.0991   86.5520    4.4915 C.3      21        0    0.0000
    128 C          79.8259   85.7150    5.5499 C.3      21        0    0.0000
    129 H          78.8641   85.9317    3.6177 H        21        0    0.0000
    130 H          79.7513   87.3601    4.1379 H        21        0    0.0000
    131 H          80.0038   86.3178    6.4491 H        21        0    0.0000
    132 H          79.1983   84.8692    5.8568 H        21        0    0.0000
    133 C          81.1988   85.1637    5.0315 C.3      22        0    0.0000
    134 C          81.9669   84.4032    6.1181 C.3      22        0    0.0000
    135 H          81.0144   84.5074    4.1720 H        22        0    0.0000
    136 H          81.8008   86.0036    4.6631 H        22        0    0.0000
    137 H          82.0207   85.0064    7.0328 H        22        0    0.0000
    138 H          81.4340   83.4808    6.3799 H        22        0    0.0000
    139 C          83.4232   84.0354    5.6691 C.3      23        0    0.0000
    140 C          84.2472   83.4293    6.8105 C.3      23        0    0.0000
    141 H          83.3672   83.3306    4.8302 H        23        0    0.0000
    142 H          83.9149   84.9393    5.2889 H        23        0    0.0000
    143 H          83.8749   83.7915    7.7768 H        23        0    0.0000
    144 H          84.1339   82.3382    6.8181 H        23        0    0.0000
    145 C          85.7711   83.7782    6.6932 C.3      24        0    0.0000
    146 C          86.5915   83.1927    7.8479 C.3      24        0    0.0000
    147 H          86.1477   83.4001    5.7347 H        24        0    0.0000
    148 H          85.8831   84.8692    6.6675 H        24        0    0.0000
    149 H          87.6633   83.2944    7.6373 H        24        0    0.0000
    150 H          86.3970   83.7542    8.7701 H        24        0    0.0000
    151 C          86.2673   81.6798    8.0997 C.3      25        0    0.0000
    152 C          86.9542   81.1404    9.3592 C.3      25        0    0.0000
    153 H          85.1801   81.5603    8.1838 H        25        0    0.0000
    154 H          86.5811   81.1002    7.2227 H        25        0    0.0000
    155 H          86.2093   80.9502   10.1418 H        25        0    0.0000
    156 H          87.4360   80.1789    9.1425 H        25        0    0.0000
    157 C          88.0327   82.1312    9.9183 C.3      26        0    0.0000
    158 C          88.7748   81.5583   11.1308 C.3      26        0    0.0000
    159 H          88.7451   82.3668    9.1181 H        26        0    0.0000
    160 H          87.5405   83.0735   10.1893 H        26        0    0.0000
    161 H          89.5925   82.2289   11.4227 H        26        0    0.0000
    162 H          88.0970   81.4949   11.9911 H        26        0    0.0000
    163 C          89.3658   80.1343   10.8471 C.3      27        0    0.0000
    164 C          89.9023   79.4646   12.1171 C.3      27        0    0.0000
    165 H          88.5848   79.5110   10.3943 H        27        0    0.0000
    166 H          90.1668   80.2257   10.1030 H        27        0    0.0000
    167 H          90.4048   80.2064   12.7500 H        27        0    0.0000
    168 H          89.0718   79.0577   12.7072 H        27        0    0.0000
    169 C          90.9101   78.3070   11.7979 C.3      28        0    0.0000
    170 C          91.4701   77.6577   13.0682 C.3      28        0    0.0000
    171 H          90.4008   77.5541   11.1837 H        28        0    0.0000
    172 H          91.7290   78.7092   11.1886 H        28        0    0.0000
    173 H          91.7627   78.4316   13.7886 H        28        0    0.0000
    174 H          90.6951   77.0519   13.5541 H        28        0    0.0000
    175 C          92.7115   76.7473   12.7724 C.3      29        0    0.0000
    176 C          93.2966   76.1305   14.0477 C.3      29        0    0.0000
    177 H          92.4112   75.9554   12.0751 H        29        0    0.0000
    178 H          93.4747   77.3458   12.2596 H        29        0    0.0000
    179 H          93.2922   76.8690   14.8589 H        29        0    0.0000
    180 H          92.6719   75.2926   14.3811 H        29        0    0.0000
    181 C          94.7629   75.6164   13.8403 C.3      30        0    0.0000
    182 C          95.4125   75.1681   15.1541 C.3      30        0    0.0000
    183 H          94.7482   74.7847   13.1250 H        30        0    0.0000
    184 H          95.3565   76.4165   13.3810 H        30        0    0.0000
    185 H          95.1376   75.8558   15.9635 H        30        0    0.0000
    186 H          95.0370   74.1780   15.4408 H        30        0    0.0000
    187 C          96.9757   75.1059   15.0531 C.3      31        0    0.0000
    188 C          97.6610   75.6399   16.3157 C.3      31        0    0.0000
    189 H          97.2772   74.0668   14.8722 H        31        0    0.0000
    190 H          97.2967   75.6841   14.1777 H        31        0    0.0000
    191 H          97.0108   76.3670   16.8178 H        31        0    0.0000
    192 H          97.8278   74.8220   17.0277 H        31        0    0.0000
    193 C          99.0359   76.3242   16.0012 C.3      32        0    0.0000
    194 C          99.2339   77.6212   16.7934 C.3      32        0    0.0000
    195 H          99.8431   75.6172   16.2293 H        32        0    0.0000
    196 H          99.0910   76.5287   14.9248 H        32        0    0.0000
    197 H          98.2633   78.0128   17.1225 H        32        0    0.0000
    198 H          99.8174   77.4224   17.7009 H        32        0    0.0000
    199 C          99.9655   78.7244   15.9537 C.3      33        0    0.0000
    200 C          99.3688   80.1179   16.1801 C.3      33        0    0.0000
    201 H         101.0299   78.7233   16.2196 H        33        0    0.0000
    202 H          99.9059   78.4578   14.8912 H        33        0    0.0000
    203 H          98.2731   80.0645   16.1669 H        33        0    0.0000
    204 H          99.6540   80.4928   17.1708 H        33        0    0.0000
    205 C          99.8375   81.1483   15.0957 C.3      34        0    0.0000
    206 C          99.4198   82.5825   15.4382 C.3      34        0    0.0000
    207 H         100.9286   81.0874   14.9983 H        34        0    0.0000
    208 H          99.4178   80.8558   14.1252 H        34        0    0.0000
    209 H          98.3968   82.5919   15.8345 H        34        0    0.0000
    210 H         100.0670   82.9845   16.2276 H        34        0    0.0000
    211 C          99.4887   83.5345   14.1946 C.3      35        0    0.0000
    212 C          99.1955   84.9931   14.5627 C.3      35        0    0.0000
    213 H         100.4848   83.4537   13.7422 H        35        0    0.0000
    214 H          98.7714   83.1851   13.4417 H        35        0    0.0000
    215 H          98.2147   85.0686   15.0485 H        35        0    0.0000
    216 H          99.9350   85.3539   15.2883 H        35        0    0.0000
    217 C          99.2135   85.9368   13.3111 C.3      36        0    0.0000
    218 C         100.6221   86.1056   12.7311 C.3      36        0    0.0000
    219 H          98.5396   85.5263   12.5490 H        36        0    0.0000
    220 H          98.8056   86.9137   13.5990 H        36        0    0.0000
    221 H         100.7046   87.0723   12.2190 H        36        0    0.0000
    222 H         101.3634   86.1132   13.5398 H        36        0    0.0000
    223 C         100.9888   84.9652   11.7200 C.3      37        0    0.0000
    224 C         102.5036   84.7808   11.5769 C.3      37        0    0.0000
    225 H         100.5264   84.0299   12.0590 H        37        0    0.0000
    226 H         100.5448   85.2008   10.7449 H        37        0    0.0000
    227 H         102.8672   85.3242   10.6960 H        37        0    0.0000
    228 H         103.0184   85.2091   12.4459 H        37        0    0.0000
    229 C         102.9084   83.2723   11.4426 C.3      38        0    0.0000
    230 C         104.1150   82.9146   12.3175 C.3      38        0    0.0000
    231 H         102.0477   82.6495   11.7161 H        38        0    0.0000
    232 H         103.1304   83.0581   10.3898 H        38        0    0.0000
    233 H         105.0464   83.1590   11.7918 H        38        0    0.0000
    234 H         104.1048   83.5145   13.2359 H        38        0    0.0000
    235 C         104.1376   81.3961   12.7061 C.3      39        0    0.0000
    236 C         105.1638   80.6027   11.8896 C.3      39        0    0.0000
    237 H         104.3600   81.3084   13.7768 H        39        0    0.0000
    238 H         103.1343   80.9780   12.5575 H        39        0    0.0000
    239 H         105.9252   81.2797   11.4828 H        39        0    0.0000
    240 H         105.6894   79.8898   12.5368 H        39        0    0.0000
    241 C         104.5016   79.8172   10.7055 C.3      40        0    0.0000
    242 C         105.5408   79.1492    9.7985 C.3      40        0    0.0000
    243 H         103.8219   79.0617   11.1187 H        40        0    0.0000
    244 H         103.8839   80.5114   10.1223 H        40        0    0.0000
    245 H         106.5177   79.6318    9.9267 H        40        0    0.0000
    246 H         105.6690   78.0977   10.0841 H        40        0    0.0000
    247 C         105.1389   79.2163    8.2848 C.3      41        0    0.0000
    248 C         106.2595   78.7210    7.3638 C.3      41        0    0.0000
    249 H         104.2337   78.6156    8.1323 H        41        0    0.0000
    250 H         104.8760   80.2515    8.0342 H        41        0    0.0000
    251 H         106.4332   77.6499    7.5252 H        41        0    0.0000
    252 H         105.9627   78.8374    6.3141 H        41        0    0.0000
    253 C         107.6044   79.4918    7.5970 C.3      42        0    0.0000
    254 C         108.7811   78.8431    6.8596 C.3      42        0    0.0000
    255 H         107.4791   80.5300    7.2655 H        42        0    0.0000
    256 H         107.8093   79.5276    8.6742 H        42        0    0.0000
    257 H         108.8234   77.7710    7.0883 H        42        0    0.0000
    258 H         108.6385   78.9286    5.7752 H        42        0    0.0000
    259 C         110.1542   79.4958    7.2417 C.3      43        0    0.0000
    260 C         111.2794   79.0828    6.2865 C.3      43        0    0.0000
    261 H         110.0400   80.5869    7.2389 H        43        0    0.0000
    262 H         110.4086   79.2083    8.2693 H        43        0    0.0000
    263 H         111.5632   78.0388    6.4686 H        43        0    0.0000
    264 H         110.9304   79.1378    5.2479 H        43        0    0.0000
    265 C         112.5512   79.9863    6.4407 C.3      44        0    0.0000
    266 C         113.1677   80.3573    5.0874 C.3      44        0    0.0000
    267 H         112.2750   80.8949    6.9900 H        44        0    0.0000
    268 H         113.2882   79.4571    7.0574 H        44        0    0.0000
    269 H         113.8093   79.5423    4.7302 H        44        0    0.0000
    270 H         112.3778   80.4882    4.3374 H        44        0    0.0000
    271 C         114.0166   81.6731    5.1620 C.3      45        0    0.0000
    272 C         115.5040   81.4207    4.8921 C.3      45        0    0.0000
    273 H         113.6191   82.3921    4.4350 H        45        0    0.0000
    274 H         113.8853   82.1228    6.1540 H        45        0    0.0000
    275 H         115.7843   80.4180    5.2380 H        45        0    0.0000
    276 H         115.7005   81.4481    3.8131 H        45        0    0.0000
    277 C         116.4235   82.4748    5.6000 C.3      46        0    0.0000
    278 C         117.7947   82.5953    4.9259 C.3      46        0    0.0000
    279 H         115.9153   83.4470    5.5954 H        46        0    0.0000
    280 H         116.5453   82.1880    6.6518 H        46        0    0.0000
    281 H         118.2564   81.6045    4.8328 H        46        0    0.0000
    282 H         117.6800   82.9864    3.9073 H        46        0    0.0000
    283 C         118.7671   83.5333    5.7208 C.3      47        0    0.0000
    284 C         120.1811   83.5393    5.1295 C.3      47        0    0.0000
    285 H         118.3555   84.5502    5.7218 H        47        0    0.0000
    286 H         118.7983   83.2051    6.7672 H        47        0    0.0000
    287 H         120.1713   84.0041    4.1359 H        47        0    0.0000
    288 H         120.8477   84.1462    5.7547 H        47        0    0.0000
    289 C         120.7796   82.0956    5.0062 C.3      48        0    0.0000
    290 C         122.1469   82.0909    4.3137 C.3      48        0    0.0000
    291 H         120.8648   81.6612    6.0099 H        48        0    0.0000
    292 H         120.0738   81.4666    4.4495 H        48        0    0.0000
    293 H         122.6531   81.1332    4.4872 H        48        0    0.0000
    294 H         122.0193   82.1878    3.2284 H        48        0    0.0000
    295 C         123.0728   83.2506    4.8191 C.3      49        0    0.0000
    296 C         124.3903   83.3236    4.0394 C.3      49        0    0.0000
    297 H         122.5303   84.2001    4.7309 H        49        0    0.0000
    298 H         123.2754   83.1015    5.8869 H        49        0    0.0000
    299 H         124.4224   84.2422    3.4404 H        49        0    0.0000
    300 H         125.2370   83.3715    4.7352 H        49        0    0.0000
    301 C         124.5868   82.0930    3.0883 C.3      50        0    0.0000
    302 C         125.8913   82.1796    2.2885 C.3      50        0    0.0000
    303 H         124.5745   81.1757    3.6899 H        50        0    0.0000
    304 H         123.7302   82.0335    2.4055 H        50        0    0.0000
    305 H         126.7505   82.0191    2.9516 H        50        0    0.0000
    306 H         125.9232   81.3843    1.5335 H        50        0    0.0000
    307 C         126.0579   83.5637    1.5716 C.3      51        0    0.0000
    308 C         127.5063   83.8258    1.1441 C.3      51        0    0.0000
    309 H         125.3967   83.5906    0.6966 H        51        0    0.0000
    310 H         125.7164   84.3562    2.2490 H        51        0    0.0000
    311 H         128.1988   83.4048    1.8835 H        51        0    0.0000
    312 H         127.7151   83.3202    0.1932 H        51        0    0.0000
    313 C         127.8100   85.3550    0.9807 C.3      52        0    0.0000
    314 C         129.1642   85.6098    0.3097 C.3      52        0    0.0000
    315 H         127.0062   85.8142    0.3920 H        52        0    0.0000
    316 H         127.7855   85.8281    1.9702 H        52        0    0.0000
    317 H         129.9305   85.8031    1.0706 H        52        0    0.0000
    318 H         129.4851   84.7169   -0.2409 H        52        0    0.0000
    319 C         129.1176   86.8244   -0.6803 C.3      53        0    0.0000
    320 C         130.1575   86.7017   -1.7995 C.3      53        0    0.0000
    321 H         128.1100   86.8927   -1.1089 H        53        0    0.0000
    322 H         129.2822   87.7491   -0.1135 H        53        0    0.0000
    323 H         131.0554   87.2777   -1.5434 H        53        0    0.0000
    324 H         130.4735   85.6566   -1.9065 H        53        0    0.0000
    325 C         129.6090   87.2075   -3.1782 C.3      54        0    0.0000
    326 C         130.2969   86.5219   -4.3638 C.3      54        0    0.0000
    327 H         128.5273   87.0280   -3.2158 H        54        0    0.0000
    328 H         129.7503   88.2937   -3.2381 H        54        0    0.0000
    329 H         131.3633   86.7789   -4.3800 H        54        0    0.0000
    330 H         130.2372   85.4319   -4.2545 H        54        0    0.0000
    331 C         129.6586   86.9277   -5.7369 C.3      55        0    0.0000
    332 C         130.3984   86.3074   -6.9273 C.3      55        0    0.0000
    333 H         128.6068   86.6159   -5.7438 H        55        0    0.0000
    334 H         129.6634   88.0216   -5.8195 H        55        0    0.0000
    335 H         131.4602   86.5816   -6.8946 H        55        0    0.0000
    336 H         130.3537   85.2128   -6.8691 H        55        0    0.0000
    337 C         129.8005   86.7651   -8.3023 C.3      56        0    0.0000
    338 C         130.5543   86.1625   -9.4929 C.3      56        0    0.0000
    339 H         128.7428   86.4765   -8.3416 H        56        0    0.0000
    340 H         129.8302   87.8606   -8.3537 H        56        0    0.0000
    341 H         131.6138   86.4439   -9.4488 H        56        0    0.0000
    342 H         130.5171   85.0671   -9.4462 H        56        0    0.0000
    343 C         129.9642   86.6300  -10.8679 C.3      57        0    0.0000
    344 C         130.7192   86.0288  -12.0585 C.3      57        0    0.0000
    345 H         128.9051   86.3475  -10.9126 H        57        0    0.0000
    346 H         130.0003   87.7255  -10.9140 H        57        0    0.0000
    347 H         131.7781   86.3120  -12.0143 H        57        0    0.0000
    348 H         130.6839   84.9333  -12.0120 H        57        0    0.0000
    349 C         130.1283   86.4953  -13.4336 C.3      58        0    0.0000
    350 C         130.8872   85.8990  -14.6242 C.3      58        0    0.0000
    351 H         129.0705   86.2080  -13.4796 H        58        0    0.0000
    352 H         130.1594   87.5910  -13.4783 H        58        0    0.0000
    353 H         131.9450   86.1860  -14.5779 H        58        0    0.0000
    354 H         130.8558   84.8033  -14.5797 H        58        0    0.0000
    355 C         130.2966   86.3660  -15.9992 C.3      59        0    0.0000
    356 C         131.0542   85.7680  -17.1898 C.3      59        0    0.0000
    357 H         129.2384   86.0803  -16.0449 H        59        0    0.0000
    358 H         130.3295   87.4616  -16.0443 H        59        0    0.0000
    359 H         132.1120   86.0554  -17.1453 H        59        0    0.0000
    360 H         131.0232   84.6724  -17.1436 H        59        0    0.0000
    361 C         130.4619   86.2326  -18.5649 C.3      60        0    0.0000
    362 C         131.2246   85.6413  -19.7555 C.3      60        0    0.0000
    363 H         129.4056   85.9399  -18.6119 H        60        0    0.0000
    364 H         130.4873   87.3285  -18.6087 H        60        0    0.0000
    365 H         132.2810   85.9332  -19.7079 H        60        0    0.0000
    366 H         131.1984   84.5454  -19.7122 H        60        0    0.0000
    367 C         130.6331   86.1069  -21.1305 C.3      61        0    0.0000
    368 C         131.3905   85.5088  -22.3211 C.3      61        0    0.0000
    369 H         129.5750   85.8204  -21.1755 H        61        0    0.0000
    370 H         130.6650   87.2026  -21.1763 H        61        0    0.0000
    371 H         132.4484   85.7961  -22.2767 H        61        0    0.0000
    372 H         131.3595   84.4132  -22.2747 H        61        0    0.0000
    373 C         130.7981   85.9734  -23.6961 C.3      62        0    0.0000
    374 C         131.5574   85.3775  -24.8867 C.3      62        0    0.0000
    375 H         129.7408   85.6842  -23.7414 H        62        0    0.0000
    376 H         130.8273   87.0691  -23.7417 H        62        0    0.0000
    377 H         132.6150   85.6652  -24.8405 H        62        0    0.0000
    378 H         131.5267   84.2818  -24.8421 H        62        0    0.0000
    379 C         130.9665   85.8439  -26.2618 C.3      63        0    0.0000
    380 C         131.7209   85.2419  -27.4524 C.3      63        0    0.0000
    381 H         129.9074   85.5612  -26.3057 H        63        0    0.0000
    382 H         131.0023   86.9394  -26.3087 H        63        0    0.0000
    383 H         132.7795   85.5266  -27.4098 H        63        0    0.0000
    384 H         131.6871   84.1464  -27.4041 H        63        0    0.0000
    385 C         131.1278   85.7056  -28.8274 C.3      64        0    0.0000
    386 C         131.8976   85.1233  -30.0180 C.3      64        0    0.0000
    387 H         130.0740   85.4048  -28.8774 H        64        0    0.0000
    388 H         131.1448   86.8017  -28.8683 H        64        0    0.0000
    389 H         132.9518   85.4226  -29.9670 H        64        0    0.0000
    390 H         131.8791   84.0271  -29.9781 H        64        0    0.0000
    391 C         131.3060   85.5889  -31.3930 C.3      65        0    0.0000
    392 C         132.0607   84.9872  -32.5836 C.3      65        0    0.0000
    393 H         130.2471   85.3054  -31.4366 H        65        0    0.0000
    394 H         131.3410   86.6844  -31.4402 H        65        0    0.0000
    395 H         133.1188   85.2739  -32.5420 H        65        0    0.0000
    396 H         132.0289   83.8918  -32.5344 H        65        0    0.0000
    397 C         131.4658   85.4487  -33.9586 C.3      66        0    0.0000
    398 C         132.2423   84.8753  -35.1492 C.3      66        0    0.0000
    399 H         130.4146   85.1393  -34.0109 H        66        0    0.0000
    400 H         131.4738   86.5451  -33.9973 H        66        0    0.0000
    401 H         133.2945   85.1808  -35.0943 H        66        0    0.0000
    402 H         132.2303   83.7789  -35.1132 H        66        0    0.0000
    403 C         131.6516   85.3422  -36.5242 C.3      67        0    0.0000
    404 C         131.7112   84.2391  -37.5866 C.3      67        0    0.0000
    405 H         130.6134   85.6627  -36.3725 H        67        0    0.0000
    406 H         132.2068   86.2244  -36.8662 H        67        0    0.0000
    407 H         132.7546   84.0294  -37.8529 H        67        0    0.0000
    408 H         131.2951   83.3070  -37.1848 H        67        0    0.0000
    409 C         130.9253   84.6239  -38.8872 C.3      68        0    0.0000
    410 C         131.7985   84.5284  -40.1432 C.3      68        0    0.0000
    411 H         130.0550   83.9630  -38.9831 H        68        0    0.0000
    412 H         130.5359   85.6435  -38.7765 H        68        0    0.0000
    413 H         132.8596   84.5661  -39.8673 H        68        0    0.0000
    414 H         131.6366   83.5646  -40.6416 H        68        0    0.0000
    415 C         131.5004   85.6810  -41.1631 C.3      69        0    0.0000
    416 C         130.5213   85.2474  -42.2597 C.3      69        0    0.0000
    417 H         131.0955   86.5413  -40.6160 H        69        0    0.0000
    418 H         132.4461   86.0096  -41.6117 H        69        0    0.0000
    419 H         130.7856   85.7262  -43.2107 H        69        0    0.0000
    420 H         130.5931   84.1647  -42.4214 H        69        0    0.0000
    421 C         129.0370   85.6083  -41.9075 C.3      70        0    0.0000
    422 C         128.0785   84.4403  -42.1645 C.3      70        0    0.0000
    423 H         128.9871   85.9111  -40.8542 H        70        0    0.0000
    424 H         128.7348   86.4803  -42.5006 H        70        0    0.0000
    425 H         128.1285   84.1375  -43.2178 H        70        0    0.0000
    426 H         128.3807   83.5682  -41.5714 H        70        0    0.0000
    427 H         127.0465   84.6912  -41.9196 H        70        0    0.0000
    428 H          69.2798   87.8287  -40.4349 H         0        0    0.0000
@<TRIPOS>BOND
     1     1     2      1
     2     1     3      1
     3     1     4      1
     4     1   428      H
     5     2     5      1
     6     2     6      1
     7     2     7      1
     8     7     8      1
     9     7     9      1
    10     7    10      1
    11     8    11      1
    12     8    12      1
    13     8    13      1
    14    13    14      1
    15    13    15      1
    16    13    16      1
    17    14    17      1
    18    14    18      1
    19    14    19      1
    20    19    20      1
    21    19    21      1
    22    19    22      1
    23    20    23      1
    24    20    24      1
    25    20    25      1
    26    25    26      1
    27    25    27      1
    28    25    28      1
    29    26    29      1
    30    26    30      1
    31    26    31      1
    32    31    32      1
    33    31    33      1
    34    31    34      1
    35    32    35      1
    36    32    36      1
    37    32    37      1
    38    37    38      1
    39    37    39      1
    40    37    40      1
    41    38    41      1
    42    38    42      1
    43    38    43      1
    44    43    44      1
    45    43    45      1
    46    43    46      1
    47    44    47      1
    48    44    48      1
    49    44    49      1
    50    49    50      1
    51    49    51      1
    52    49    52      1
    53    50    53      1
    54    50    54      1
    55    50    55      1
    56    55    56      1
    57    55    57      1
    58    55    58      1
    59    56    59      1
    60    56    60      1
    61    56    61      1
    62    61    62      1
    63    61    63      1
    64    61    64      1
    65    62    65      1
    66    62    66      1
    67    62    67      1
    68    67    68      1
    69    67    69      1
    70    67    70      1
    71    68    71      1
    72    68    72      1
    73    68    73      1
    74    73    74      1
    75    73    75      1
    76    73    76      1
    77    74    77      1
    78    74    78      1
    79    74    79      1
    80    79    80      1
    81    79    81      1
    82    79    82      1
    83    80    83      1
    84    80    84      1
    85    80    85      1
    86    85    86      1
    87    85    87      1
    88    85    88      1
    89    86    89      1
    90    86    90      1
    91    86    91      1
    92    91    92      1
    93    91    93      1
    94    91    94      1
    95    92    95      1
    96    92    96      1
    97    92    97      1
    98    97    98      1
    99    97    99      1
   100    97   100      1
   101    98   101      1
   102    98   102      1
   103    98   103      1
   104   103   104      1
   105   103   105      1
   106   103   106      1
   107   104   107      1
   108   104   108      1
   109   104   109      1
   110   109   110      1
   111   109   111      1
   112   109   112      1
   113   110   113      1
   114   110   114      1
   115   110   115      1
   116   115   116      1
   117   115   117      1
   118   115   118      1
   119   116   119      1
   120   116   120      1
   121   116   121      1
   122   121   122      1
   123   121   123      1
   124   121   124      1
   125   122   125      1
   126   122   126      1
   127   122   127      1
   128   127   128      1
   129   127   129      1
   130   127   130      1
   131   128   131      1
   132   128   132      1
   133   128   133      1
   134   133   134      1
   135   133   135      1
   136   133   136      1
   137   134   137      1
   138   134   138      1
   139   134   139      1
   140   139   140      1
   141   139   141      1
   142   139   142      1
   143   140   143      1
   144   140   144      1
   145   140   145      1
   146   145   146      1
   147   145   147      1
   148   145   148      1
   149   146   149      1
   150   146   150      1
   151   146   151      1
   152   151   152      1
   153   151   153      1
   154   151   154      1
   155   152   155      1
   156   152   156      1
   157   152   157      1
   158   157   158      1
   159   157   159      1
   160   157   160      1
   161   158   161      1
   162   158   162      1
   163   158   163      1
   164   163   164      1
   165   163   165      1
   166   163   166      1
   167   164   167      1
   168   164   168      1
   169   164   169      1
   170   169   170      1
   171   169   171      1
   172   169   172      1
   173   170   173      1
   174   170   174      1
   175   170   175      1
   176   175   176      1
   177   175   177      1
   178   175   178      1
   179   176   179      1
   180   176   180      1
   181   176   181      1
   182   181   182      1
   183   181   183      1
   184   181   184      1
   185   182   185      1
   186   182   186      1
   187   182   187      1
   188   187   188      1
   189   187   189      1
   190   187   190      1
   191   188   191      1
   192   188   192      1
   193   188   193      1
   194   193   194      1
   195   193   195      1
   196   193   196      1
   197   194   197      1
   198   194   198      1
   199   194   199      1
   200   199   200      1
   201   199   201      1
   202   199   202      1
   203   200   203      1
   204   200   204      1
   205   200   205      1
   206   205   206      1
   207   205   207      1
   208   205   208      1
   209   206   209      1
   210   206   210      1
   211   206   211      1
   212   211   212      1
   213   211   213      1
   214   211   214      1
   215   212   215      1
   216   212   216      1
   217   212   217      1
   218   217   218      1
   219   217   219      1
   220   217   220      1
   221   218   221      1
   222   218   222      1
   223   218   223      1
   224   223   224      1
   225   223   225      1
   226   223   226      1
   227   224   227      1
   228   224   228      1
   229   224   229      1
   230   229   230      1
   231   229   231      1
   232   229   232      1
   233   230   233      1
   234   230   234      1
   235   230   235      1
   236   235   236      1
   237   235   237      1
   238   235   238      1
   239   236   239      1
   240   236   240      1
   241   236   241      1
   242   241   242      1
   243   241   243      1
   244   241   244      1
   245   242   245      1
   246   242   246      1
   247   242   247      1
   248   247   248      1
   249   247   249      1
   250   247   250      1
   251   248   251      1
   252   248   252      1
   253   248   253      1
   254   253   254      1
   255   253   255      1
   256   253   256      1
   257   254   257      1
   258   254   258      1
   259   254   259      1
   260   259   260      1
   261   259   261      1
   262   259   262      1
   263   260   263      1
   264   260   264      1
   265   260   265      1
   266   265   266      1
   267   265   267      1
   268   265   268      1
   269   266   269      1
   270   266   270      1
   271   266   271      1
   272   271   272      1
   273   271   273      1
   274   271   274      1
   275   272   275      1
   276   272   276      1
   277   272   277      1
   278   277   278      1
   279   277   279      1
   280   277   280      1
   281   278   281      1
   282   278   282      1
   283   278   283      1
   284   283   284      1
   285   283   285      1
   286   283   286      1
   287   284   287      1
   288   284   288      1
   289   284   289      1
   290   289   290      1
   291   289   291      1
   292   289   292      1
   293   290   293      1
   294   290   294      1
   295   290   295      1
   296   295   296      1
   297   295   297      1
   298   295   298      1
   299   296   299      1
   300   296   300      1
   301   296   301      1
   302   301   302      1
   303   301   303      1
   304   301   304      1
   305   302   305      1
   306   302   306      1
   307   302   307      1
   308   307   308      1
   309   307   309      1
   310   307   310      1
   311   308   311      1
   312   308   312      1
   313   308   313      1
   314   313   314      1
   315   313   315      1
   316   313   316      1
   317   314   317      1
   318   314   318      1
   319   314   319      1
   320   319   320      1
   321   319   321      1
   322   319   322      1
   323   320   323      1
   324   320   324      1
   325   320   325      1
   326   325   326      1
   327   325   327      1
   328   325   328      1
   329   326   329      1
   330   326   330      1
   331   326   331      1
   332   331   332      1
   333   331   333      1
   334   331   334      1
   335   332   335      1
   336   332   336      1
   337   332   337      1
   338   337   338      1
   339   337   339      1
   340   337   340      1
   341   338   341      1
   342   338   342      1
   343   338   343      1
   344   343   344      1
   345   343   345      1
   346   343   346      1
   347   344   347      1
   348   344   348      1
   349   344   349      1
   350   349   350      1
   351   349   351      1
   352   349   352      1
   353   350   353      1
   354   350   354      1
   355   350   355      1
   356   355   356      1
   357   355   357      1
   358   355   358      1
   359   356   359      1
   360   356   360      1
   361   356   361      1
   362   361   362      1
   363   361   363      1
   364   361   364      1
   365   362   365      1
   366   362   366      1
   367   362   367      1
   368   367   368      1
   369   367   369      1
   370   367   370      1
   371   368   371      1
   372   368   372      1
   373   368   373      1
   374   373   374      1
   375   373   375      1
   376   373   376      1
   377   374   377      1
   378   374   378      1
   379   374   379      1
   380   379   380      1
   381   379   381      1
   382   379   382      1
   383   380   383      1
   384   380   384      1
   385   380   385      1
   386   385   386      1
   387   385   387      1
   388   385   388      1
   389   386   389      1
   390   386   390      1
   391   386   391      1
   392   391   392      1
   393   391   393      1
   394   391   394      1
   395   392   395      1
   396   392   396      1
   397   392   397      1
   398   397   398      1
   399   397   399      1
   400   397   400      1
   401   398   401      1
   402   398   402      1
   403   398   403      1
   404   403   404      1
   405   403   405      1
   406   403   406      1
   407   404   407      1
   408   404   408      1
   409   404   409      1
   410   409   410      1
   411   409   411      1
   412   409   412      1
   413   410   413      1
   414   410   414      1
   415   410   415      1
   416   415   416      1
   417   415   417      1
   418   415   418      1
   419   416   419      1
   420   416   420      1
   421   416   421      1
   422   421   422      1
   423   421   423      1
   424   421   424      1
   425   422   425      1
   426   422   426      1
   427   422   427      H
