###
### Created by PolyChef-cpp17 on Thu Feb 27 19:40:30 2025
###

@<TRIPOS>MOLECULE
NO_INFO
158 157 1 0 0
SMALL
USER_CHARGES


@<TRIPOS>ATOM
      1 C          -0.7202  139.7887  120.6551 C.3       0        0    0.0000
      2 C          -1.5487  138.6375  120.0742 C.3       0        0    0.0000
      3 H          -1.1125  140.7502  120.3015 H         0        0    0.0000
      4 H           0.3162  139.7221  120.3014 H         0        0    0.0000
      5 H          -1.5927  137.8072  120.7899 H         0        0    0.0000
      6 H          -2.5824  138.9648  119.9074 H         0        0    0.0000
      7 C          -0.9620  138.1072  118.7207 C.3       1        0    0.0000
      8 C          -0.3638  139.2308  117.8671 C.3       1        0    0.0000
      9 H          -0.1965  137.3522  118.9388 H         1        0    0.0000
     10 H          -1.7588  137.5967  118.1657 H         1        0    0.0000
     11 H          -1.0540  140.0827  117.8292 H         1        0    0.0000
     12 H           0.5639  139.5971  118.3239 H         1        0    0.0000
     13 C          -0.0559  138.7645  116.4024 C.3       2        0    0.0000
     14 C          -0.1117  139.9228  115.4002 C.3       2        0    0.0000
     15 H           0.9361  138.2965  116.3815 H         2        0    0.0000
     16 H          -0.7769  137.9875  116.1197 H         2        0    0.0000
     17 H          -1.0305  140.5038  115.5477 H         2        0    0.0000
     18 H           0.7263  140.6096  115.5720 H         2        0    0.0000
     19 C          -0.0612  139.4258  113.9143 C.3       3        0    0.0000
     20 C          -0.1685  140.5801  112.9118 C.3       3        0    0.0000
     21 H           0.8754  138.8766  113.7568 H         3        0    0.0000
     22 H          -0.8769  138.7102  113.7529 H         3        0    0.0000
     23 H          -1.1018  141.1335  113.0738 H         3        0    0.0000
     24 H           0.6513  141.2920  113.0686 H         3        0    0.0000
     25 C          -0.1280  140.0821  111.4259 C.3       4        0    0.0000
     26 C          -0.2725  141.2326  110.4236 C.3       4        0    0.0000
     27 H           0.8174  139.5520  111.2563 H         4        0    0.0000
     28 H          -0.9310  139.3498  111.2763 H         4        0    0.0000
     29 H          -1.2146  141.7671  110.5977 H         4        0    0.0000
     30 H           0.5346  141.9613  110.5685 H         4        0    0.0000
     31 C          -0.2420  140.7335  108.9378 C.3       5        0    0.0000
     32 C          -1.3849  141.3223  108.1036 C.3       5        0    0.0000
     33 H           0.7247  141.0024  108.4943 H         5        0    0.0000
     34 H          -0.2975  139.6378  108.9316 H         5        0    0.0000
     35 H          -2.3238  141.2807  108.6696 H         5        0    0.0000
     36 H          -1.1904  142.3814  107.8936 H         5        0    0.0000
     37 C          -1.5800  140.5652  106.7449 C.3       6        0    0.0000
     38 C          -1.3903  141.4861  105.5344 C.3       6        0    0.0000
     39 H          -0.8678  139.7321  106.6989 H         6        0    0.0000
     40 H          -2.5838  140.1230  106.7274 H         6        0    0.0000
     41 H          -2.3544  141.9139  105.2325 H         6        0    0.0000
     42 H          -0.7412  142.3293  105.8013 H         6        0    0.0000
     43 C          -0.7648  140.7350  104.3088 C.3       7        0    0.0000
     44 C          -1.4972  141.0490  102.9996 C.3       7        0    0.0000
     45 H           0.2926  141.0149  104.2247 H         7        0    0.0000
     46 H          -0.7904  139.6559  104.5047 H         7        0    0.0000
     47 H          -2.5816  140.9719  103.1474 H         7        0    0.0000
     48 H          -1.2938  142.0826  102.6934 H         7        0    0.0000
     49 C          -1.0759  140.0853  101.8372 C.3       8        0    0.0000
     50 C          -1.2815  140.7167  100.4559 C.3       8        0    0.0000
     51 H          -0.0228  139.8087  101.9715 H         8        0    0.0000
     52 H          -1.6577  139.1587  101.9177 H         8        0    0.0000
     53 H          -2.3498  140.8900  100.2768 H         8        0    0.0000
     54 H          -0.7918  141.6975  100.4140 H         8        0    0.0000
     55 C          -0.7147  139.8193   99.3022 C.3       9        0    0.0000
     56 C          -1.0491  140.3775   97.9145 C.3       9        0    0.0000
     57 H           0.3725  139.7347   99.4217 H         9        0    0.0000
     58 H          -1.1231  138.8067   99.4088 H         9        0    0.0000
     59 H          -2.1347  140.4934   97.8073 H         9        0    0.0000
     60 H          -0.6123  141.3769   97.7958 H         9        0    0.0000
     61 C          -0.5230  139.4558   96.7608 C.3      10        0    0.0000
     62 C          -0.8451  140.0210   95.3731 C.3      10        0    0.0000
     63 H           0.5612  139.3316   96.8740 H        10        0    0.0000
     64 H          -0.9677  138.4593   96.8737 H        10        0    0.0000
     65 H          -1.9294  140.1425   95.2589 H        10        0    0.0000
     66 H          -0.4028  141.0187   95.2613 H        10        0    0.0000
     67 C          -0.3154  139.1013   94.2194 C.3      11        0    0.0000
     68 C          -0.6370  139.6668   92.8317 C.3      11        0    0.0000
     69 H           0.7688  138.9793   94.3339 H        11        0    0.0000
     70 H          -0.7582  138.1037   94.3309 H        11        0    0.0000
     71 H          -1.7211  139.7917   92.7183 H        11        0    0.0000
     72 H          -0.1917  140.6630   92.7190 H        11        0    0.0000
     73 C          -0.1113  138.7449   91.6780 C.3      12        0    0.0000
     74 C          -0.4298  139.3121   90.2902 C.3      12        0    0.0000
     75 H           0.9724  138.6179   91.7928 H        12        0    0.0000
     76 H          -0.5586  137.7493   91.7891 H        12        0    0.0000
     77 H          -1.5135  139.4381   90.1750 H        12        0    0.0000
     78 H           0.0167  140.3081   90.1795 H        12        0    0.0000
     79 C           0.0974  138.3910   89.1365 C.3      13        0    0.0000
     80 C          -0.2254  138.9558   87.7488 C.3      13        0    0.0000
     81 H           1.1816  138.2679   89.2497 H        13        0    0.0000
     82 H          -0.3463  137.3940   89.2494 H        13        0    0.0000
     83 H          -1.3093  139.0825   87.6370 H        13        0    0.0000
     84 H           0.2216  139.9512   87.6345 H        13        0    0.0000
     85 C           0.2969  138.0319   86.5951 C.3      14        0    0.0000
     86 C          -0.0219  138.5990   85.2074 C.3      14        0    0.0000
     87 H           1.3804  137.9025   86.7088 H        14        0    0.0000
     88 H          -0.1526  137.0375   86.7075 H        14        0    0.0000
     89 H          -1.1055  138.7263   85.0929 H        14        0    0.0000
     90 H           0.4258  139.5943   85.0958 H        14        0    0.0000
     91 C           0.5031  137.6766   84.0537 C.3      15        0    0.0000
     92 C           0.1727  138.2370   82.6660 C.3      15        0    0.0000
     93 H           1.5882  137.5572   84.1625 H        15        0    0.0000
     94 H           0.0630  136.6785   84.1709 H        15        0    0.0000
     95 H          -0.9136  138.3381   82.5500 H        15        0    0.0000
     96 H           0.5962  139.2431   82.5559 H        15        0    0.0000
     97 C           0.7216  137.3287   81.5122 C.3      16        0    0.0000
     98 C           0.3940  137.8909   80.1246 C.3      16        0    0.0000
     99 H           1.8075  137.2257   81.6296 H        16        0    0.0000
    100 H           0.2962  136.3233   81.6209 H        16        0    0.0000
    101 H           0.6951  137.1763   79.3485 H        16        0    0.0000
    102 H          -0.6892  138.0302   80.0213 H        16        0    0.0000
    103 C           1.1076  139.2603   79.8547 C.3      17        0    0.0000
    104 C           0.9870  139.6997   78.3913 C.3      17        0    0.0000
    105 H           0.6719  140.0219   80.5132 H        17        0    0.0000
    106 H           2.1646  139.1695   80.1343 H        17        0    0.0000
    107 H          -0.0696  139.8109   78.1178 H        17        0    0.0000
    108 H           1.4530  140.6834   78.2543 H        17        0    0.0000
    109 C           1.6591  138.6807   77.4077 C.3      18        0    0.0000
    110 C           1.7720  139.2361   75.9837 C.3      18        0    0.0000
    111 H           2.6542  138.4231   77.7911 H        18        0    0.0000
    112 H           1.0729  137.7534   77.4044 H        18        0    0.0000
    113 H           1.5111  138.4587   75.2550 H        18        0    0.0000
    114 H           1.0556  140.0546   75.8413 H        18        0    0.0000
    115 C           3.2130  139.7646   75.6647 C.3      19        0    0.0000
    116 C           3.3946  140.0956   74.1793 C.3      19        0    0.0000
    117 H           3.4060  140.6556   76.2750 H        19        0    0.0000
    118 H           3.9439  139.0070   75.9734 H        19        0    0.0000
    119 H           3.0137  139.2731   73.5613 H        19        0    0.0000
    120 H           2.8074  140.9845   73.9174 H        19        0    0.0000
    121 C           4.8954  140.3538   73.8074 C.3      20        0    0.0000
    122 C           5.0807  140.6554   72.3161 C.3      20        0    0.0000
    123 H           5.2701  141.1907   74.4097 H        20        0    0.0000
    124 H           5.4862  139.4734   74.0893 H        20        0    0.0000
    125 H           4.7330  139.8063   71.7146 H        20        0    0.0000
    126 H           4.4672  141.5179   72.0277 H        20        0    0.0000
    127 C           6.5758  140.9542   71.9517 C.3      21        0    0.0000
    128 C           6.7450  141.3662   70.4852 C.3      21        0    0.0000
    129 H           6.9486  141.7480   72.6108 H        21        0    0.0000
    130 H           7.1767  140.0610   72.1632 H        21        0    0.0000
    131 H           7.0657  142.4135   70.4233 H        21        0    0.0000
    132 H           7.5342  140.7667   70.0147 H        21        0    0.0000
    133 C           5.4214  141.1936   69.6631 C.3      22        0    0.0000
    134 C           5.5328  141.7826   68.2525 C.3      22        0    0.0000
    135 H           5.1770  140.1256   69.6065 H        22        0    0.0000
    136 H           4.6009  141.6761   70.2085 H        22        0    0.0000
    137 H           6.0371  142.7561   68.2901 H        22        0    0.0000
    138 H           6.1504  141.1321   67.6209 H        22        0    0.0000
    139 C           4.1321  141.9651   67.5726 C.3      23        0    0.0000
    140 C           4.2462  142.5086   66.1441 C.3      23        0    0.0000
    141 H           3.6131  140.9986   67.5670 H        23        0    0.0000
    142 H           3.5270  142.6441   68.1862 H        23        0    0.0000
    143 H           4.5995  141.7196   65.4686 H        23        0    0.0000
    144 H           3.2588  142.8172   65.7790 H        23        0    0.0000
    145 C           5.2244  143.7300   66.0495 C.3      24        0    0.0000
    146 C           5.6454  144.0265   64.6059 C.3      24        0    0.0000
    147 H           4.7354  144.6093   66.4869 H        24        0    0.0000
    148 H           6.1090  143.5230   66.6644 H        24        0    0.0000
    149 H           4.7678  144.2982   64.0064 H        24        0    0.0000
    150 H           6.3230  144.8889   64.5814 H        24        0    0.0000
    151 C           6.3588  142.8040   63.9322 C.3      25        0    0.0000
    152 C           7.6959  143.1925   63.2916 C.3      25        0    0.0000
    153 H           6.5164  142.0255   64.6889 H        25        0    0.0000
    154 H           5.6892  142.3769   63.1754 H        25        0    0.0000
    155 H           7.5383  143.9710   62.5349 H        25        0    0.0000
    156 H           8.3655  143.6196   64.0483 H        25        0    0.0000
    157 H           8.1919  142.3425   62.8231 H        25        0    0.0000
    158 H          -0.7202  139.7887  121.7450 H         0        0    0.0000
@<TRIPOS>BOND
     1     1     2      1
     2     1     3      1
     3     1     4      1
     4     1   158      H
     5     2     5      1
     6     2     6      1
     7     2     7      1
     8     7     8      1
     9     7     9      1
    10     7    10      1
    11     8    11      1
    12     8    12      1
    13     8    13      1
    14    13    14      1
    15    13    15      1
    16    13    16      1
    17    14    17      1
    18    14    18      1
    19    14    19      1
    20    19    20      1
    21    19    21      1
    22    19    22      1
    23    20    23      1
    24    20    24      1
    25    20    25      1
    26    25    26      1
    27    25    27      1
    28    25    28      1
    29    26    29      1
    30    26    30      1
    31    26    31      1
    32    31    32      1
    33    31    33      1
    34    31    34      1
    35    32    35      1
    36    32    36      1
    37    32    37      1
    38    37    38      1
    39    37    39      1
    40    37    40      1
    41    38    41      1
    42    38    42      1
    43    38    43      1
    44    43    44      1
    45    43    45      1
    46    43    46      1
    47    44    47      1
    48    44    48      1
    49    44    49      1
    50    49    50      1
    51    49    51      1
    52    49    52      1
    53    50    53      1
    54    50    54      1
    55    50    55      1
    56    55    56      1
    57    55    57      1
    58    55    58      1
    59    56    59      1
    60    56    60      1
    61    56    61      1
    62    61    62      1
    63    61    63      1
    64    61    64      1
    65    62    65      1
    66    62    66      1
    67    62    67      1
    68    67    68      1
    69    67    69      1
    70    67    70      1
    71    68    71      1
    72    68    72      1
    73    68    73      1
    74    73    74      1
    75    73    75      1
    76    73    76      1
    77    74    77      1
    78    74    78      1
    79    74    79      1
    80    79    80      1
    81    79    81      1
    82    79    82      1
    83    80    83      1
    84    80    84      1
    85    80    85      1
    86    85    86      1
    87    85    87      1
    88    85    88      1
    89    86    89      1
    90    86    90      1
    91    86    91      1
    92    91    92      1
    93    91    93      1
    94    91    94      1
    95    92    95      1
    96    92    96      1
    97    92    97      1
    98    97    98      1
    99    97    99      1
   100    97   100      1
   101    98   101      1
   102    98   102      1
   103    98   103      1
   104   103   104      1
   105   103   105      1
   106   103   106      1
   107   104   107      1
   108   104   108      1
   109   104   109      1
   110   109   110      1
   111   109   111      1
   112   109   112      1
   113   110   113      1
   114   110   114      1
   115   110   115      1
   116   115   116      1
   117   115   117      1
   118   115   118      1
   119   116   119      1
   120   116   120      1
   121   116   121      1
   122   121   122      1
   123   121   123      1
   124   121   124      1
   125   122   125      1
   126   122   126      1
   127   122   127      1
   128   127   128      1
   129   127   129      1
   130   127   130      1
   131   128   131      1
   132   128   132      1
   133   128   133      1
   134   133   134      1
   135   133   135      1
   136   133   136      1
   137   134   137      1
   138   134   138      1
   139   134   139      1
   140   139   140      1
   141   139   141      1
   142   139   142      1
   143   140   143      1
   144   140   144      1
   145   140   145      1
   146   145   146      1
   147   145   147      1
   148   145   148      1
   149   146   149      1
   150   146   150      1
   151   146   151      1
   152   151   152      1
   153   151   153      1
   154   151   154      1
   155   152   155      1
   156   152   156      1
   157   152   157      H
