###
### Created by PolyChef-cpp17 on Thu Feb 27 19:40:30 2025
###

@<TRIPOS>MOLECULE
NO_INFO
164 163 1 0 0
SMALL
USER_CHARGES


@<TRIPOS>ATOM
      1 C         149.2798  191.7487  120.6551 C.3       0        0    0.0000
      2 C         148.4513  190.5975  120.0742 C.3       0        0    0.0000
      3 H         148.8875  192.7103  120.3015 H         0        0    0.0000
      4 H         150.3162  191.6821  120.3014 H         0        0    0.0000
      5 H         148.4064  189.7676  120.7903 H         0        0    0.0000
      6 H         147.4178  190.9251  119.9065 H         0        0    0.0000
      7 C         149.0388  190.0663  118.7214 C.3       1        0    0.0000
      8 C         149.6365  191.1895  117.8668 C.3       1        0    0.0000
      9 H         149.8047  189.3121  118.9404 H         1        0    0.0000
     10 H         148.2425  189.5547  118.1667 H         1        0    0.0000
     11 H         148.9462  192.0413  117.8289 H         1        0    0.0000
     12 H         150.5644  191.5561  118.3230 H         1        0    0.0000
     13 C         149.9436  190.7225  116.4022 C.3       2        0    0.0000
     14 C         149.8890  191.8806  115.3998 C.3       2        0    0.0000
     15 H         150.9350  190.2533  116.3813 H         2        0    0.0000
     16 H         149.2216  189.9462  116.1199 H         2        0    0.0000
     17 H         148.9690  192.4604  115.5446 H         2        0    0.0000
     18 H         150.7256  192.5685  115.5739 H         2        0    0.0000
     19 C         149.9444  191.3835  113.9141 C.3       3        0    0.0000
     20 C         149.8102  192.5345  112.9110 C.3       3        0    0.0000
     21 H         150.8913  190.8532  113.7538 H         3        0    0.0000
     22 H         149.1427  190.6514  113.7561 H         3        0    0.0000
     23 H         148.8710  193.0751  113.0823 H         3        0    0.0000
     24 H         150.6215  193.2581  113.0581 H         3        0    0.0000
     25 C         149.8419  192.0347  111.4256 C.3       4        0    0.0000
     26 C         150.0313  193.1844  110.4299 C.3       4        0    0.0000
     27 H         150.6530  191.3043  111.3155 H         4        0    0.0000
     28 H         148.9070  191.5020  111.2116 H         4        0    0.0000
     29 H         149.1937  193.8888  110.5048 H         4        0    0.0000
     30 H         150.9400  193.7482  110.6747 H         4        0    0.0000
     31 C         150.1345  192.6777  108.9500 C.3       5        0    0.0000
     32 C         149.1848  193.4297  108.0110 C.3       5        0    0.0000
     33 H         151.1706  192.7928  108.6082 H         5        0    0.0000
     34 H         149.9130  191.6035  108.9277 H         5        0    0.0000
     35 H         148.2142  193.5806  108.4996 H         5        0    0.0000
     36 H         149.5851  194.4271  107.7909 H         5        0    0.0000
     37 C         148.9574  192.6670  106.6604 C.3       6        0    0.0000
     38 C         149.4752  193.4567  105.4532 C.3       6        0    0.0000
     39 H         149.4588  191.6928  106.7157 H         6        0    0.0000
     40 H         147.8855  192.4637  106.5452 H         6        0    0.0000
     41 H         148.7087  194.1616  105.1080 H         6        0    0.0000
     42 H         150.3474  194.0562  105.7418 H         6        0    0.0000
     43 C         149.8766  192.5225  104.2600 C.3       7        0    0.0000
     44 C         149.4552  193.0988  102.9038 C.3       7        0    0.0000
     45 H         150.9625  192.3678  104.2820 H         7        0    0.0000
     46 H         149.4151  191.5387  104.4105 H         7        0    0.0000
     47 H         148.4112  193.4333  102.9453 H         7        0    0.0000
     48 H         150.0600  193.9827  102.6664 H         7        0    0.0000
     49 C         149.6060  192.0565  101.7426 C.3       8        0    0.0000
     50 C         149.5023  192.7087  100.3596 C.3       8        0    0.0000
     51 H         150.5724  191.5480  101.8473 H         8        0    0.0000
     52 H         148.8316  191.2876  101.8549 H         8        0    0.0000
     53 H         148.5116  193.1619  100.2307 H         8        0    0.0000
     54 H         150.2343  193.5211  100.2710 H         8        0    0.0000
     55 C         149.7435  191.6826   99.1992 C.3       9        0    0.0000
     56 C         149.5966  192.3253   97.8156 C.3       9        0    0.0000
     57 H         150.7468  191.2530   99.3099 H         9        0    0.0000
     58 H         149.0325  190.8540   99.3065 H         9        0    0.0000
     59 H         148.5956  192.7609   97.7075 H         9        0    0.0000
     60 H         150.3124  193.1494   97.7058 H         9        0    0.0000
     61 C         149.8281  191.2969   96.6553 C.3      10        0    0.0000
     62 C         149.6799  191.9392   95.2717 C.3      10        0    0.0000
     63 H         150.8296  190.8620   96.7628 H        10        0    0.0000
     64 H         149.1131  190.4722   96.7658 H        10        0    0.0000
     65 H         148.6777  192.3723   95.1634 H        10        0    0.0000
     66 H         150.3935  192.7652   95.1620 H        10        0    0.0000
     67 C         149.9143  190.9115   94.1113 C.3      11        0    0.0000
     68 C         149.7641  191.5534   92.7277 C.3      11        0    0.0000
     69 H         150.9170  190.4796   94.2188 H        11        0    0.0000
     70 H         149.2017  190.0848   94.2219 H        11        0    0.0000
     71 H         148.7607  191.9835   92.6195 H        11        0    0.0000
     72 H         150.4753  192.3816   92.6180 H        11        0    0.0000
     73 C         150.0016  190.5264   91.5674 C.3      12        0    0.0000
     74 C         149.8459  191.1671   90.1838 C.3      12        0    0.0000
     75 H         151.0065  190.0994   91.6733 H        12        0    0.0000
     76 H         149.2931  189.6963   91.6794 H        12        0    0.0000
     77 H         148.8390  191.5887   90.0756 H        12        0    0.0000
     78 H         150.5502  192.0011   90.0740 H        12        0    0.0000
     79 C         150.0919  190.1421   89.0234 C.3      13        0    0.0000
     80 C         149.9354  190.7825   87.6398 C.3      13        0    0.0000
     81 H         151.0991  189.7209   89.1313 H        13        0    0.0000
     82 H         149.3881  189.3078   89.1335 H        13        0    0.0000
     83 H         148.9257  191.1971   87.5292 H        13        0    0.0000
     84 H         150.6339  191.6216   87.5325 H        13        0    0.0000
     85 C         150.1918  189.7601   86.4795 C.3      14        0    0.0000
     86 C         150.0320  190.3997   85.0959 C.3      14        0    0.0000
     87 H         151.2024  189.3475   86.5887 H        14        0    0.0000
     88 H         149.4950  188.9198   86.5882 H        14        0    0.0000
     89 H         149.0235  190.8183   84.9892 H        14        0    0.0000
     90 H         150.7335  191.2358   84.9847 H        14        0    0.0000
     91 C         150.2792  189.3750   83.9355 C.3      15        0    0.0000
     92 C         150.1126  190.0130   82.5519 C.3      15        0    0.0000
     93 H         151.2894  188.9602   84.0394 H        15        0    0.0000
     94 H         149.5811  188.5365   84.0496 H        15        0    0.0000
     95 H         149.0765  190.3458   82.4134 H        15        0    0.0000
     96 H         150.7440  190.9066   82.4713 H        15        0    0.0000
     97 C         150.4851  189.0248   81.3934 C.3      16        0    0.0000
     98 C         150.3254  189.6651   80.0100 C.3      16        0    0.0000
     99 H         151.5195  188.6879   81.5348 H        16        0    0.0000
    100 H         149.8501  188.1336   81.4709 H        16        0    0.0000
    101 H         150.7445  189.0059   79.2398 H        16        0    0.0000
    102 H         149.2614  189.7893   79.7735 H        16        0    0.0000
    103 C         151.0301  191.0624   79.9172 C.3      17        0    0.0000
    104 C         151.2074  191.5283   78.4679 C.3      17        0    0.0000
    105 H         150.4371  191.7954   80.4781 H        17        0    0.0000
    106 H         152.0060  191.0000   80.4143 H        17        0    0.0000
    107 H         150.4666  191.0401   77.8225 H        17        0    0.0000
    108 H         151.0259  192.6078   78.3950 H        17        0    0.0000
    109 C         152.6413  191.2186   77.9154 C.3      18        0    0.0000
    110 C         152.8503  191.7699   76.5007 C.3      18        0    0.0000
    111 H         153.3841  191.6471   78.5997 H        18        0    0.0000
    112 H         152.7960  190.1325   77.9226 H        18        0    0.0000
    113 H         153.8117  191.4245   76.1006 H        18        0    0.0000
    114 H         152.0731  191.3856   75.8286 H        18        0    0.0000
    115 C         152.8211  193.3368   76.4634 C.3      19        0    0.0000
    116 C         153.1458  193.8909   75.0718 C.3      19        0    0.0000
    117 H         151.8291  193.6796   76.7827 H        19        0    0.0000
    118 H         153.5390  193.7215   77.1984 H        19        0    0.0000
    119 H         152.3396  193.6425   74.3705 H        19        0    0.0000
    120 H         153.2062  194.9857   75.1075 H        19        0    0.0000
    121 C         154.4964  193.3284   74.5087 C.3      20        0    0.0000
    122 C         154.7247  193.7226   73.0453 C.3      20        0    0.0000
    123 H         155.3205  193.6988   75.1310 H        20        0    0.0000
    124 H         154.4932  192.2358   74.6078 H        20        0    0.0000
    125 H         154.1351  193.0748   72.3848 H        20        0    0.0000
    126 H         154.3762  194.7486   72.8733 H        20        0    0.0000
    127 C         156.2339  193.6258   72.6324 C.3      21        0    0.0000
    128 C         156.4724  194.0880   71.1907 C.3      21        0    0.0000
    129 H         156.8297  194.2327   73.3254 H        21        0    0.0000
    130 H         156.5681  192.5881   72.7550 H        21        0    0.0000
    131 H         157.5483  194.1171   70.9782 H        21        0    0.0000
    132 H         156.0318  193.3701   70.4878 H        21        0    0.0000
    133 C         155.8639  195.5056   70.9129 C.3      22        0    0.0000
    134 C         156.0571  195.9457   69.4575 C.3      22        0    0.0000
    135 H         154.7955  195.4867   71.1614 H        22        0    0.0000
    136 H         156.3321  196.2304   71.5903 H        22        0    0.0000
    137 H         155.3665  195.3982   68.8041 H        22        0    0.0000
    138 H         155.8144  197.0103   69.3510 H        22        0    0.0000
    139 C         157.5230  195.7089   68.9549 C.3      23        0    0.0000
    140 C         157.6367  195.8052   67.4295 C.3      23        0    0.0000
    141 H         158.1827  196.4464   69.4286 H        23        0    0.0000
    142 H         157.8585  194.7215   69.2956 H        23        0    0.0000
    143 H         158.2840  195.0051   67.0493 H        23        0    0.0000
    144 H         156.6518  195.6592   66.9689 H        23        0    0.0000
    145 C         158.2132  197.1862   66.9627 C.3      24        0    0.0000
    146 C         158.4847  197.2225   65.4548 C.3      24        0    0.0000
    147 H         157.5030  197.9764   67.2362 H        24        0    0.0000
    148 H         159.1383  197.3887   67.5165 H        24        0    0.0000
    149 H         158.0752  198.1431   65.0208 H        24        0    0.0000
    150 H         159.5656  197.2396   65.2675 H        24        0    0.0000
    151 C         157.8622  195.9920   64.7092 C.3      25        0    0.0000
    152 C         158.2615  195.9462   63.2302 C.3      25        0    0.0000
    153 H         158.1837  195.0728   65.2143 H        25        0    0.0000
    154 H         156.7701  196.0374   64.8028 H        25        0    0.0000
    155 H         157.8687  195.0348   62.7626 H        25        0    0.0000
    156 H         157.8154  196.7928   62.6937 H        25        0    0.0000
    157 C         159.8161  195.9855   63.0330 C.3      26        0    0.0000
    158 C         160.3243  194.8127   62.1873 C.3      26        0    0.0000
    159 H         160.0885  196.9368   62.5592 H        26        0    0.0000
    160 H         160.2979  195.9752   64.0186 H        26        0    0.0000
    161 H         160.0519  193.8615   62.6612 H        26        0    0.0000
    162 H         159.8425  194.8230   61.2018 H        26        0    0.0000
    163 H         161.4053  194.8401   62.0502 H        26        0    0.0000
    164 H         149.2798  191.7487  121.7450 H         0        0    0.0000
@<TRIPOS>BOND
     1     1     2      1
     2     1     3      1
     3     1     4      1
     4     1   164      H
     5     2     5      1
     6     2     6      1
     7     2     7      1
     8     7     8      1
     9     7     9      1
    10     7    10      1
    11     8    11      1
    12     8    12      1
    13     8    13      1
    14    13    14      1
    15    13    15      1
    16    13    16      1
    17    14    17      1
    18    14    18      1
    19    14    19      1
    20    19    20      1
    21    19    21      1
    22    19    22      1
    23    20    23      1
    24    20    24      1
    25    20    25      1
    26    25    26      1
    27    25    27      1
    28    25    28      1
    29    26    29      1
    30    26    30      1
    31    26    31      1
    32    31    32      1
    33    31    33      1
    34    31    34      1
    35    32    35      1
    36    32    36      1
    37    32    37      1
    38    37    38      1
    39    37    39      1
    40    37    40      1
    41    38    41      1
    42    38    42      1
    43    38    43      1
    44    43    44      1
    45    43    45      1
    46    43    46      1
    47    44    47      1
    48    44    48      1
    49    44    49      1
    50    49    50      1
    51    49    51      1
    52    49    52      1
    53    50    53      1
    54    50    54      1
    55    50    55      1
    56    55    56      1
    57    55    57      1
    58    55    58      1
    59    56    59      1
    60    56    60      1
    61    56    61      1
    62    61    62      1
    63    61    63      1
    64    61    64      1
    65    62    65      1
    66    62    66      1
    67    62    67      1
    68    67    68      1
    69    67    69      1
    70    67    70      1
    71    68    71      1
    72    68    72      1
    73    68    73      1
    74    73    74      1
    75    73    75      1
    76    73    76      1
    77    74    77      1
    78    74    78      1
    79    74    79      1
    80    79    80      1
    81    79    81      1
    82    79    82      1
    83    80    83      1
    84    80    84      1
    85    80    85      1
    86    85    86      1
    87    85    87      1
    88    85    88      1
    89    86    89      1
    90    86    90      1
    91    86    91      1
    92    91    92      1
    93    91    93      1
    94    91    94      1
    95    92    95      1
    96    92    96      1
    97    92    97      1
    98    97    98      1
    99    97    99      1
   100    97   100      1
   101    98   101      1
   102    98   102      1
   103    98   103      1
   104   103   104      1
   105   103   105      1
   106   103   106      1
   107   104   107      1
   108   104   108      1
   109   104   109      1
   110   109   110      1
   111   109   111      1
   112   109   112      1
   113   110   113      1
   114   110   114      1
   115   110   115      1
   116   115   116      1
   117   115   117      1
   118   115   118      1
   119   116   119      1
   120   116   120      1
   121   116   121      1
   122   121   122      1
   123   121   123      1
   124   121   124      1
   125   122   125      1
   126   122   126      1
   127   122   127      1
   128   127   128      1
   129   127   129      1
   130   127   130      1
   131   128   131      1
   132   128   132      1
   133   128   133      1
   134   133   134      1
   135   133   135      1
   136   133   136      1
   137   134   137      1
   138   134   138      1
   139   134   139      1
   140   139   140      1
   141   139   141      1
   142   139   142      1
   143   140   143      1
   144   140   144      1
   145   140   145      1
   146   145   146      1
   147   145   147      1
   148   145   148      1
   149   146   149      1
   150   146   150      1
   151   146   151      1
   152   151   152      1
   153   151   153      1
   154   151   154      1
   155   152   155      1
   156   152   156      1
   157   152   157      1
   158   157   158      1
   159   157   159      1
   160   157   160      1
   161   158   161      1
   162   158   162      1
   163   158   163      H
