###
### Created by PolyChef-cpp17 on Thu Feb 27 19:40:30 2025
###

@<TRIPOS>MOLECULE
NO_INFO
158 157 1 0 0
SMALL
USER_CHARGES


@<TRIPOS>ATOM
      1 C           9.2798   53.1887  120.6551 C.3       0        0    0.0000
      2 C           8.4513   52.0375  120.0742 C.3       0        0    0.0000
      3 H           8.8875   54.1502  120.3015 H         0        0    0.0000
      4 H          10.3162   53.1221  120.3014 H         0        0    0.0000
      5 H           8.4077   51.2070  120.7897 H         0        0    0.0000
      6 H           7.4174   52.3646  119.9080 H         0        0    0.0000
      7 C           9.0376   51.5077  118.7203 C.3       1        0    0.0000
      8 C           9.6318   52.6323  117.8650 C.3       1        0    0.0000
      9 H           9.8053   50.7549  118.9379 H         1        0    0.0000
     10 H           8.2413   50.9948  118.1667 H         1        0    0.0000
     11 H           8.9379   53.4811  117.8249 H         1        0    0.0000
     12 H          10.5574   53.0034  118.3221 H         1        0    0.0000
     13 C           9.9431   52.1645  116.4016 C.3       2        0    0.0000
     14 C           9.8830   53.3205  115.3971 C.3       2        0    0.0000
     15 H          10.9372   51.7008  116.3825 H         2        0    0.0000
     16 H           9.2258   51.3836  116.1198 H         2        0    0.0000
     17 H           8.9625   53.8990  115.5439 H         2        0    0.0000
     18 H          10.7190   54.0103  115.5670 H         2        0    0.0000
     19 C           9.9341   52.8206  113.9122 C.3       3        0    0.0000
     20 C           9.8314   53.9733  112.9073 C.3       3        0    0.0000
     21 H          10.8694   52.2685  113.7570 H         3        0    0.0000
     22 H           9.1166   52.1070  113.7510 H         3        0    0.0000
     23 H           8.9001   54.5304  113.0680 H         3        0    0.0000
     24 H          10.6537   54.6826  113.0632 H         3        0    0.0000
     25 C           9.8708   53.4723  111.4224 C.3       4        0    0.0000
     26 C           9.8101   54.6281  110.4177 C.3       4        0    0.0000
     27 H          10.7876   52.8893  111.2702 H         4        0    0.0000
     28 H           9.0304   52.7866  111.2582 H         4        0    0.0000
     29 H           8.8900   55.2069  110.5653 H         4        0    0.0000
     30 H          10.6465   55.3176  110.5865 H         4        0    0.0000
     31 C           9.8596   54.1277  108.9329 C.3       5        0    0.0000
     32 C           8.7614   54.7592  108.0702 C.3       5        0    0.0000
     33 H          10.8468   54.3597  108.5143 H         5        0    0.0000
     34 H           9.7627   53.0350  108.9246 H         5        0    0.0000
     35 H           7.8099   54.7635  108.6163 H         5        0    0.0000
     36 H           9.0067   55.8070  107.8566 H         5        0    0.0000
     37 C           8.5618   54.0002  106.7132 C.3       6        0    0.0000
     38 C           8.8328   54.8974  105.5005 C.3       6        0    0.0000
     39 H           9.2289   53.1296  106.6936 H         6        0    0.0000
     40 H           7.5364   53.6124  106.6725 H         6        0    0.0000
     41 H           7.9082   55.3998  105.1901 H         6        0    0.0000
     42 H           9.5456   55.6871  105.7686 H         6        0    0.0000
     43 C           9.4044   54.0932  104.2824 C.3       7        0    0.0000
     44 C           8.7545   54.5062  102.9572 C.3       7        0    0.0000
     45 H          10.4893   54.2486  104.2338 H         7        0    0.0000
     46 H           9.2472   53.0222  104.4607 H         7        0    0.0000
     47 H           7.6636   54.5422  103.0684 H         7        0    0.0000
     48 H           9.0763   55.5176  102.6795 H         7        0    0.0000
     49 C           9.1112   53.5238  101.7889 C.3       8        0    0.0000
     50 C           8.9248   54.1681  100.4108 C.3       8        0    0.0000
     51 H          10.1494   53.1910  101.9112 H         8        0    0.0000
     52 H           8.4816   52.6294  101.8743 H         8        0    0.0000
     53 H           7.8681   54.4163  100.2514 H         8        0    0.0000
     54 H           9.4815   55.1120  100.3585 H         8        0    0.0000
     55 C           9.4052   53.2330   99.2479 C.3       9        0    0.0000
     56 C           9.1130   53.8278   97.8659 C.3       9        0    0.0000
     57 H          10.4816   53.0535   99.3602 H         9        0    0.0000
     58 H           8.9110   52.2589   99.3503 H         9        0    0.0000
     59 H           8.0396   54.0294   97.7625 H         9        0    0.0000
     60 H           9.6265   54.7908   97.7546 H         9        0    0.0000
     61 C           9.5630   52.8778   96.7030 C.3      10        0    0.0000
     62 C           9.2752   53.4747   95.3210 C.3      10        0    0.0000
     63 H          10.6357   52.6733   96.8085 H        10        0    0.0000
     64 H           9.0467   51.9160   96.8123 H        10        0    0.0000
     65 H           8.2023   53.6775   95.2149 H        10        0    0.0000
     66 H           9.7900   54.4374   95.2124 H        10        0    0.0000
     67 C           9.7275   52.5258   94.1581 C.3      11        0    0.0000
     68 C           9.4452   53.1253   92.7761 C.3      11        0    0.0000
     69 H          10.7995   52.3195   94.2667 H        11        0    0.0000
     70 H           9.2094   51.5646   94.2642 H        11        0    0.0000
     71 H           8.3730   53.3302   92.6669 H        11        0    0.0000
     72 H           9.9621   54.0872   92.6706 H        11        0    0.0000
     73 C           9.8994   52.1773   91.6132 C.3      12        0    0.0000
     74 C           9.6030   52.7700   90.2312 C.3      12        0    0.0000
     75 H          10.9740   51.9815   91.7159 H        12        0    0.0000
     76 H           9.3911   51.2116   91.7252 H        12        0    0.0000
     77 H           8.5274   52.9581   90.1254 H        12        0    0.0000
     78 H          10.1046   53.7396   90.1223 H        12        0    0.0000
     79 C          10.0678   51.8272   89.0682 C.3      13        0    0.0000
     80 C           9.7727   52.4206   87.6863 C.3      13        0    0.0000
     81 H          11.1432   51.6383   89.1746 H        13        0    0.0000
     82 H           9.5655   50.8580   89.1766 H        13        0    0.0000
     83 H           8.6975   52.6112   87.5806 H        13        0    0.0000
     84 H          10.2765   53.3890   87.5773 H        13        0    0.0000
     85 C          10.2352   51.4766   86.5233 C.3      14        0    0.0000
     86 C           9.9552   52.0774   85.1414 C.3      14        0    0.0000
     87 H          11.3079   51.2762   86.6360 H        14        0    0.0000
     88 H           9.7221   50.5123   86.6253 H        14        0    0.0000
     89 H           8.8864   52.3022   85.0385 H        14        0    0.0000
     90 H          10.4895   53.0290   85.0296 H        14        0    0.0000
     91 C          10.3838   51.1176   83.9784 C.3      15        0    0.0000
     92 C          10.1086   51.7205   82.5964 C.3      15        0    0.0000
     93 H          11.4518   50.8897   84.0834 H        15        0    0.0000
     94 H           9.8467   50.1673   84.0880 H        15        0    0.0000
     95 H           9.0279   51.8290   82.4418 H        15        0    0.0000
     96 H          10.5385   52.7278   82.5330 H        15        0    0.0000
     97 C          10.6993   50.8450   81.4379 C.3      16        0    0.0000
     98 C          10.3560   51.4055   80.0533 C.3      16        0    0.0000
     99 H          11.7879   50.7849   81.5600 H        16        0    0.0000
    100 H          10.3143   49.8224   81.5359 H        16        0    0.0000
    101 H          10.9724   50.9191   79.2872 H        16        0    0.0000
    102 H           9.3109   51.1818   79.8056 H        16        0    0.0000
    103 C          10.5747   52.9555   79.9689 C.3      17        0    0.0000
    104 C          10.4506   53.4823   78.5350 C.3      17        0    0.0000
    105 H           9.8417   53.4519   80.6168 H        17        0    0.0000
    106 H          11.5659   53.1953   80.3732 H        17        0    0.0000
    107 H          11.0855   52.8933   77.8615 H        17        0    0.0000
    108 H           9.4196   53.3647   78.1789 H        17        0    0.0000
    109 C          10.8559   54.9922   78.4196 C.3      18        0    0.0000
    110 C          11.1545   55.4047   76.9740 C.3      18        0    0.0000
    111 H          10.0444   55.6083   78.8266 H        18        0    0.0000
    112 H          11.7348   55.1717   79.0512 H        18        0    0.0000
    113 H          11.8828   54.7155   76.5290 H        18        0    0.0000
    114 H          10.2433   55.3351   76.3671 H        18        0    0.0000
    115 C          11.7159   56.8651   76.8768 C.3      19        0    0.0000
    116 C          12.0562   57.2619   75.4360 C.3      19        0    0.0000
    117 H          10.9736   57.5577   77.2924 H        19        0    0.0000
    118 H          12.6088   56.9435   77.5094 H        19        0    0.0000
    119 H          11.1355   57.3842   74.8521 H        19        0    0.0000
    120 H          12.5682   58.2321   75.4239 H        19        0    0.0000
    121 C          12.9669   56.2011   74.7270 C.3      20        0    0.0000
    122 C          13.1634   56.5066   73.2380 C.3      20        0    0.0000
    123 H          13.9381   56.1719   75.2364 H        20        0    0.0000
    124 H          12.5162   55.2086   74.8511 H        20        0    0.0000
    125 H          14.2243   56.4188   72.9728 H        20        0    0.0000
    126 H          12.6244   55.7707   72.6287 H        20        0    0.0000
    127 C          12.6641   57.9425   72.8552 C.3      21        0    0.0000
    128 C          12.7209   58.1936   71.3443 C.3      21        0    0.0000
    129 H          11.6368   58.0682   73.2191 H        21        0    0.0000
    130 H          13.2780   58.6828   73.3830 H        21        0    0.0000
    131 H          11.7050   58.2588   70.9354 H        21        0    0.0000
    132 H          13.2048   59.1570   71.1411 H        21        0    0.0000
    133 C          13.5004   57.0662   70.5836 C.3      22        0    0.0000
    134 C          13.4133   57.2252   69.0617 C.3      22        0    0.0000
    135 H          14.5495   57.0835   70.9042 H        22        0    0.0000
    136 H          13.0953   56.0918   70.8838 H        22        0    0.0000
    137 H          14.4088   57.1143   68.6143 H        22        0    0.0000
    138 H          12.7864   56.4319   68.6359 H        22        0    0.0000
    139 C          12.8229   58.6156   68.6425 C.3      23        0    0.0000
    140 C          12.7448   58.7784   67.1205 C.3      23        0    0.0000
    141 H          11.8244   58.7234   69.0840 H        23        0    0.0000
    142 H          13.4456   59.4089   69.0742 H        23        0    0.0000
    143 H          11.7100   58.9784   66.8161 H        23        0    0.0000
    144 H          13.3393   59.6444   66.8038 H        23        0    0.0000
    145 C          13.2586   57.5075   66.3599 C.3      24        0    0.0000
    146 C          13.4565   57.7673   64.8624 C.3      24        0    0.0000
    147 H          14.2030   57.1818   66.8132 H        24        0    0.0000
    148 H          12.5400   56.6920   66.5085 H        24        0    0.0000
    149 H          13.3533   56.8302   64.3013 H        24        0    0.0000
    150 H          12.6766   58.4440   64.4917 H        24        0    0.0000
    151 C          14.8593   58.3925   64.5482 C.3      25        0    0.0000
    152 C          15.4819   57.8116   63.2739 C.3      25        0    0.0000
    153 H          14.7480   59.4796   64.4507 H        25        0    0.0000
    154 H          15.5233   58.2193   65.4041 H        25        0    0.0000
    155 H          15.5931   56.7246   63.3714 H        25        0    0.0000
    156 H          14.8178   57.9848   62.4180 H        25        0    0.0000
    157 H          16.4572   58.2464   63.0554 H        25        0    0.0000
    158 H           9.2798   53.1887  121.7450 H         0        0    0.0000
@<TRIPOS>BOND
     1     1     2      1
     2     1     3      1
     3     1     4      1
     4     1   158      H
     5     2     5      1
     6     2     6      1
     7     2     7      1
     8     7     8      1
     9     7     9      1
    10     7    10      1
    11     8    11      1
    12     8    12      1
    13     8    13      1
    14    13    14      1
    15    13    15      1
    16    13    16      1
    17    14    17      1
    18    14    18      1
    19    14    19      1
    20    19    20      1
    21    19    21      1
    22    19    22      1
    23    20    23      1
    24    20    24      1
    25    20    25      1
    26    25    26      1
    27    25    27      1
    28    25    28      1
    29    26    29      1
    30    26    30      1
    31    26    31      1
    32    31    32      1
    33    31    33      1
    34    31    34      1
    35    32    35      1
    36    32    36      1
    37    32    37      1
    38    37    38      1
    39    37    39      1
    40    37    40      1
    41    38    41      1
    42    38    42      1
    43    38    43      1
    44    43    44      1
    45    43    45      1
    46    43    46      1
    47    44    47      1
    48    44    48      1
    49    44    49      1
    50    49    50      1
    51    49    51      1
    52    49    52      1
    53    50    53      1
    54    50    54      1
    55    50    55      1
    56    55    56      1
    57    55    57      1
    58    55    58      1
    59    56    59      1
    60    56    60      1
    61    56    61      1
    62    61    62      1
    63    61    63      1
    64    61    64      1
    65    62    65      1
    66    62    66      1
    67    62    67      1
    68    67    68      1
    69    67    69      1
    70    67    70      1
    71    68    71      1
    72    68    72      1
    73    68    73      1
    74    73    74      1
    75    73    75      1
    76    73    76      1
    77    74    77      1
    78    74    78      1
    79    74    79      1
    80    79    80      1
    81    79    81      1
    82    79    82      1
    83    80    83      1
    84    80    84      1
    85    80    85      1
    86    85    86      1
    87    85    87      1
    88    85    88      1
    89    86    89      1
    90    86    90      1
    91    86    91      1
    92    91    92      1
    93    91    93      1
    94    91    94      1
    95    92    95      1
    96    92    96      1
    97    92    97      1
    98    97    98      1
    99    97    99      1
   100    97   100      1
   101    98   101      1
   102    98   102      1
   103    98   103      1
   104   103   104      1
   105   103   105      1
   106   103   106      1
   107   104   107      1
   108   104   108      1
   109   104   109      1
   110   109   110      1
   111   109   111      1
   112   109   112      1
   113   110   113      1
   114   110   114      1
   115   110   115      1
   116   115   116      1
   117   115   117      1
   118   115   118      1
   119   116   119      1
   120   116   120      1
   121   116   121      1
   122   121   122      1
   123   121   123      1
   124   121   124      1
   125   122   125      1
   126   122   126      1
   127   122   127      1
   128   127   128      1
   129   127   129      1
   130   127   130      1
   131   128   131      1
   132   128   132      1
   133   128   133      1
   134   133   134      1
   135   133   135      1
   136   133   136      1
   137   134   137      1
   138   134   138      1
   139   134   139      1
   140   139   140      1
   141   139   141      1
   142   139   142      1
   143   140   143      1
   144   140   144      1
   145   140   145      1
   146   145   146      1
   147   145   147      1
   148   145   148      1
   149   146   149      1
   150   146   150      1
   151   146   151      1
   152   151   152      1
   153   151   153      1
   154   151   154      1
   155   152   155      1
   156   152   156      1
   157   152   157      H
