###
### Created by PolyChef-cpp17 on Thu Feb 27 19:40:30 2025
###

@<TRIPOS>MOLECULE
NO_INFO
140 139 1 0 0
SMALL
USER_CHARGES


@<TRIPOS>ATOM
      1 C           9.2798  191.7487  120.6551 C.3       0        0    0.0000
      2 C           8.4513  190.5975  120.0742 C.3       0        0    0.0000
      3 H           8.8875  192.7103  120.3015 H         0        0    0.0000
      4 H          10.3162  191.6821  120.3014 H         0        0    0.0000
      5 H           8.4075  189.7672  120.7898 H         0        0    0.0000
      6 H           7.4175  190.9247  119.9076 H         0        0    0.0000
      7 C           9.0378  190.0674  118.7205 C.3       1        0    0.0000
      8 C           9.6365  191.1911  117.8673 C.3       1        0    0.0000
      9 H           9.8030  189.3121  118.9383 H         1        0    0.0000
     10 H           8.2408  189.5574  118.1654 H         1        0    0.0000
     11 H           8.9457  192.0425  117.8281 H         1        0    0.0000
     12 H          10.5633  191.5583  118.3253 H         1        0    0.0000
     13 C           9.9468  190.7244  116.4032 C.3       2        0    0.0000
     14 C           9.8861  191.8813  115.3997 C.3       2        0    0.0000
     15 H          10.9408  190.2607  116.3831 H         2        0    0.0000
     16 H           9.2293  189.9439  116.1213 H         2        0    0.0000
     17 H           8.9645  192.4581  115.5458 H         2        0    0.0000
     18 H          10.7208  192.5723  115.5713 H         2        0    0.0000
     19 C           9.9400  191.3827  113.9144 C.3       3        0    0.0000
     20 C           9.8144  192.5339  112.9104 C.3       3        0    0.0000
     21 H          10.8837  190.8463  113.7555 H         3        0    0.0000
     22 H           9.1339  190.6557  113.7559 H         3        0    0.0000
     23 H           8.8754  193.0765  113.0758 H         3        0    0.0000
     24 H          10.6264  193.2558  113.0623 H         3        0    0.0000
     25 C           9.8541  192.0339  111.4252 C.3       4        0    0.0000
     26 C           9.8193  193.1916  110.4214 C.3       4        0    0.0000
     27 H          10.7615  191.4353  111.2777 H         4        0    0.0000
     28 H           9.0030  191.3629  111.2551 H         4        0    0.0000
     29 H           8.9037  193.7803  110.5577 H         4        0    0.0000
     30 H          10.6610  193.8716  110.6022 H         4        0    0.0000
     31 C           9.8828  192.6926  108.9366 C.3       5        0    0.0000
     32 C           8.7974  193.3305  108.0626 C.3       5        0    0.0000
     33 H          10.8757  192.9202  108.5293 H         5        0    0.0000
     34 H           9.7807  191.6004  108.9260 H         5        0    0.0000
     35 H           7.8422  193.3482  108.6020 H         5        0    0.0000
     36 H           9.0552  194.3743  107.8444 H         5        0    0.0000
     37 C           8.5990  192.5655  106.7088 C.3       6        0    0.0000
     38 C           8.9033  193.4477  105.4930 C.3       6        0    0.0000
     39 H           9.2484  191.6812  106.7039 H         6        0    0.0000
     40 H           7.5664  192.1983  106.6581 H         6        0    0.0000
     41 H           7.9949  193.9729  105.1726 H         6        0    0.0000
     42 H           9.6351  194.2195  105.7620 H         6        0    0.0000
     43 C           9.4620  192.6210  104.2840 C.3       7        0    0.0000
     44 C           8.8459  193.0550  102.9494 C.3       7        0    0.0000
     45 H          10.5524  192.7368  104.2502 H         7        0    0.0000
     46 H           9.2636  191.5567  104.4615 H         7        0    0.0000
     47 H           7.7552  193.1259  103.0440 H         7        0    0.0000
     48 H           9.2042  194.0556  102.6774 H         7        0    0.0000
     49 C           9.1887  192.0618  101.7859 C.3       8        0    0.0000
     50 C           8.9944  192.6964  100.4044 C.3       8        0    0.0000
     51 H          10.2263  191.7251  101.9026 H         8        0    0.0000
     52 H           8.5556  191.1712  101.8832 H         8        0    0.0000
     53 H           7.9387  192.9543  100.2541 H         8        0    0.0000
     54 H           9.5602  193.6339  100.3381 H         8        0    0.0000
     55 C           9.4526  191.7465   99.2446 C.3       9        0    0.0000
     56 C           9.1774  192.3450   97.8607 C.3       9        0    0.0000
     57 H          10.5240  191.5402   99.3589 H         9        0    0.0000
     58 H           8.9339  190.7855   99.3487 H         9        0    0.0000
     59 H           8.1091  192.5703   97.7540 H         9        0    0.0000
     60 H           9.7127  193.2961   97.7489 H         9        0    0.0000
     61 C           9.6092  191.3828   96.7008 C.3      10        0    0.0000
     62 C           9.3416  191.9847   95.3169 C.3      10        0    0.0000
     63 H          10.6761  191.1527   96.8110 H        10        0    0.0000
     64 H           9.0694  190.4339   96.8090 H        10        0    0.0000
     65 H           8.2745  192.2136   95.2061 H        10        0    0.0000
     66 H           9.8803  192.9344   95.2092 H        10        0    0.0000
     67 C           9.7753  191.0234   94.1570 C.3      11        0    0.0000
     68 C           9.5047  191.6240   92.7731 C.3      11        0    0.0000
     69 H          10.8430  190.7965   94.2663 H        11        0    0.0000
     70 H           9.2384  190.0730   94.2661 H        11        0    0.0000
     71 H           8.4375  191.8542   92.6650 H        11        0    0.0000
     72 H          10.0444  192.5727   92.6626 H        11        0    0.0000
     73 C           9.9337  190.6606   91.6132 C.3      12        0    0.0000
     74 C           9.6651  191.2620   90.2293 C.3      12        0    0.0000
     75 H          11.0005  190.4291   91.7221 H        12        0    0.0000
     76 H           9.3928  189.7124   91.7227 H        12        0    0.0000
     77 H           8.5975  191.4893   90.1187 H        12        0    0.0000
     78 H          10.2023  192.2124   90.1214 H        12        0    0.0000
     79 C          10.0999  190.3013   89.0694 C.3      13        0    0.0000
     80 C           9.8280  190.9012   87.6855 C.3      13        0    0.0000
     81 H          11.1680  190.0761   89.1785 H        13        0    0.0000
     82 H           9.5646  189.3500   89.1787 H        13        0    0.0000
     83 H           8.7604  191.1292   87.5775 H        13        0    0.0000
     84 H          10.3657  191.8511   87.5750 H        13        0    0.0000
     85 C          10.2591  189.9388   86.5256 C.3      14        0    0.0000
     86 C           9.9944  190.5420   85.1417 C.3      14        0    0.0000
     87 H          11.3254  189.7062   86.6369 H        14        0    0.0000
     88 H           9.7171  188.9910   86.6327 H        14        0    0.0000
     89 H           8.9298  190.7837   85.0340 H        14        0    0.0000
     90 H          10.5443  191.4848   85.0309 H        14        0    0.0000
     91 C          10.4126  189.5739   83.9818 C.3      15        0    0.0000
     92 C          10.1712  190.1870   82.5980 C.3      15        0    0.0000
     93 H          11.4727  189.3176   84.1000 H        15        0    0.0000
     94 H           9.8491  188.6379   84.0820 H        15        0    0.0000
     95 H           9.0982  190.3538   82.4424 H        15        0    0.0000
     96 H          10.6555  191.1692   82.5321 H        15        0    0.0000
     97 C          10.7140  189.2775   81.4423 C.3      16        0    0.0000
     98 C          10.4684  189.8883   80.0583 C.3      16        0    0.0000
     99 H          11.7879  189.1136   81.5960 H        16        0    0.0000
    100 H          10.2324  188.2941   81.5104 H        16        0    0.0000
    101 H           9.4050  189.8160   79.7986 H        16        0    0.0000
    102 H          10.7182  190.9565   80.0688 H        16        0    0.0000
    103 C          11.3107  189.1834   78.9398 C.3      17        0    0.0000
    104 C          10.4273  188.5576   77.8548 C.3      17        0    0.0000
    105 H          11.9911  189.9189   78.4930 H        17        0    0.0000
    106 H          11.9397  188.4132   79.4032 H        17        0    0.0000
    107 H           9.4110  188.4053   78.2388 H        17        0    0.0000
    108 H          10.3420  189.2395   76.9996 H        17        0    0.0000
    109 C          10.9886  187.1833   77.3513 C.3      18        0    0.0000
    110 C          10.5804  186.8841   75.9046 C.3      18        0    0.0000
    111 H          12.0820  187.1944   77.4390 H        18        0    0.0000
    112 H          10.6273  186.3888   78.0160 H        18        0    0.0000
    113 H           9.4991  186.7075   75.8476 H        18        0    0.0000
    114 H          10.7919  187.7515   75.2670 H        18        0    0.0000
    115 C          11.3277  185.6350   75.3226 C.3      19        0    0.0000
    116 C          10.9060  185.3249   73.8821 C.3      19        0    0.0000
    117 H          12.4086  185.8171   75.3673 H        19        0    0.0000
    118 H          11.1270  184.7706   75.9677 H        19        0    0.0000
    119 H           9.8287  185.4931   73.7610 H        19        0    0.0000
    120 H          11.4115  186.0068   73.1871 H        19        0    0.0000
    121 C          11.2362  183.8485   73.4712 C.3      20        0    0.0000
    122 C          10.7905  183.5305   72.0397 C.3      20        0    0.0000
    123 H          12.3164  183.6861   73.5736 H        20        0    0.0000
    124 H          10.7467  183.1669   74.1778 H        20        0    0.0000
    125 H          11.6455  183.1800   71.4485 H        20        0    0.0000
    126 H          10.0567  182.7151   72.0466 H        20        0    0.0000
    127 C          10.1575  184.7737   71.3246 C.3      21        0    0.0000
    128 C           9.4715  184.3987   70.0063 C.3      21        0    0.0000
    129 H           9.4354  185.2430   72.0042 H        21        0    0.0000
    130 H          10.9451  185.5151   71.1411 H        21        0    0.0000
    131 H           9.3964  185.2800   69.3573 H        21        0    0.0000
    132 H          10.0751  183.6595   69.4652 H        21        0    0.0000
    133 C           8.0351  183.8119   70.2300 C.3      22        0    0.0000
    134 C           7.0295  184.3271   69.1945 C.3      22        0    0.0000
    135 H           8.0901  182.7170   70.1887 H        22        0    0.0000
    136 H           7.7003  184.0726   71.2417 H        22        0    0.0000
    137 H           6.9746  185.4220   69.2358 H        22        0    0.0000
    138 H           7.3644  184.0664   68.1829 H        22        0    0.0000
    139 H           6.0308  183.9191   69.3501 H        22        0    0.0000
    140 H           9.2798  191.7487  121.7450 H         0        0    0.0000
@<TRIPOS>BOND
     1     1     2      1
     2     1     3      1
     3     1     4      1
     4     1   140      H
     5     2     5      1
     6     2     6      1
     7     2     7      1
     8     7     8      1
     9     7     9      1
    10     7    10      1
    11     8    11      1
    12     8    12      1
    13     8    13      1
    14    13    14      1
    15    13    15      1
    16    13    16      1
    17    14    17      1
    18    14    18      1
    19    14    19      1
    20    19    20      1
    21    19    21      1
    22    19    22      1
    23    20    23      1
    24    20    24      1
    25    20    25      1
    26    25    26      1
    27    25    27      1
    28    25    28      1
    29    26    29      1
    30    26    30      1
    31    26    31      1
    32    31    32      1
    33    31    33      1
    34    31    34      1
    35    32    35      1
    36    32    36      1
    37    32    37      1
    38    37    38      1
    39    37    39      1
    40    37    40      1
    41    38    41      1
    42    38    42      1
    43    38    43      1
    44    43    44      1
    45    43    45      1
    46    43    46      1
    47    44    47      1
    48    44    48      1
    49    44    49      1
    50    49    50      1
    51    49    51      1
    52    49    52      1
    53    50    53      1
    54    50    54      1
    55    50    55      1
    56    55    56      1
    57    55    57      1
    58    55    58      1
    59    56    59      1
    60    56    60      1
    61    56    61      1
    62    61    62      1
    63    61    63      1
    64    61    64      1
    65    62    65      1
    66    62    66      1
    67    62    67      1
    68    67    68      1
    69    67    69      1
    70    67    70      1
    71    68    71      1
    72    68    72      1
    73    68    73      1
    74    73    74      1
    75    73    75      1
    76    73    76      1
    77    74    77      1
    78    74    78      1
    79    74    79      1
    80    79    80      1
    81    79    81      1
    82    79    82      1
    83    80    83      1
    84    80    84      1
    85    80    85      1
    86    85    86      1
    87    85    87      1
    88    85    88      1
    89    86    89      1
    90    86    90      1
    91    86    91      1
    92    91    92      1
    93    91    93      1
    94    91    94      1
    95    92    95      1
    96    92    96      1
    97    92    97      1
    98    97    98      1
    99    97    99      1
   100    97   100      1
   101    98   101      1
   102    98   102      1
   103    98   103      1
   104   103   104      1
   105   103   105      1
   106   103   106      1
   107   104   107      1
   108   104   108      1
   109   104   109      1
   110   109   110      1
   111   109   111      1
   112   109   112      1
   113   110   113      1
   114   110   114      1
   115   110   115      1
   116   115   116      1
   117   115   117      1
   118   115   118      1
   119   116   119      1
   120   116   120      1
   121   116   121      1
   122   121   122      1
   123   121   123      1
   124   121   124      1
   125   122   125      1
   126   122   126      1
   127   122   127      1
   128   127   128      1
   129   127   129      1
   130   127   130      1
   131   128   131      1
   132   128   132      1
   133   128   133      1
   134   133   134      1
   135   133   135      1
   136   133   136      1
   137   134   137      1
   138   134   138      1
   139   134   139      H
