###
### Created by PolyChef-cpp17 on Thu Feb 27 19:40:30 2025
###

@<TRIPOS>MOLECULE
NO_INFO
1646 1645 1 0 0
SMALL
USER_CHARGES


@<TRIPOS>ATOM
      1 C          -0.7202   35.8687  120.6551 C.3       0        0    0.0000
      2 C          -1.5487   34.7175  120.0742 C.3       0        0    0.0000
      3 H          -1.1125   36.8302  120.3015 H         0        0    0.0000
      4 H           0.3162   35.8021  120.3014 H         0        0    0.0000
      5 H          -1.5927   33.8872  120.7899 H         0        0    0.0000
      6 H          -2.5825   35.0448  119.9074 H         0        0    0.0000
      7 C          -0.9620   34.1872  118.7206 C.3       1        0    0.0000
      8 C          -0.3632   35.3108  117.8673 C.3       1        0    0.0000
      9 H          -0.1969   33.4319  118.9387 H         1        0    0.0000
     10 H          -1.7590   33.6772  118.1655 H         1        0    0.0000
     11 H          -1.0536   36.1624  117.8286 H         1        0    0.0000
     12 H           0.5639   35.6774  118.3251 H         1        0    0.0000
     13 C          -0.0537   34.8442  116.4031 C.3       2        0    0.0000
     14 C          -0.1149   36.0011  115.3997 C.3       2        0    0.0000
     15 H           0.9403   34.3805  116.3824 H         2        0    0.0000
     16 H          -0.7714   34.0637  116.1215 H         2        0    0.0000
     17 H          -1.0364   36.5780  115.5464 H         2        0    0.0000
     18 H           0.7199   36.6920  115.5708 H         2        0    0.0000
     19 C          -0.0619   35.5026  113.9143 C.3       3        0    0.0000
     20 C          -0.1805   36.6547  112.9105 C.3       3        0    0.0000
     21 H           0.8791   34.9614  113.7563 H         3        0    0.0000
     22 H          -0.8717   34.7799  113.7548 H         3        0    0.0000
     23 H          -1.1158   37.2035  113.0765 H         3        0    0.0000
     24 H           0.6363   37.3712  113.0620 H         3        0    0.0000
     25 C          -0.1449   36.1545  111.4252 C.3       4        0    0.0000
     26 C          -0.0496   37.3117  110.4247 C.3       4        0    0.0000
     27 H           0.7095   35.4779  111.3003 H         4        0    0.0000
     28 H          -1.0473   35.5618  111.2300 H         4        0    0.0000
     29 H          -0.9198   37.9716  110.5289 H         4        0    0.0000
     30 H           0.8363   37.9222  110.6391 H         4        0    0.0000
     31 C           0.0294   36.8098  108.9417 C.3       5        0    0.0000
     32 C          -0.9768   37.5240  108.0325 C.3       5        0    0.0000
     33 H           1.0495   36.9659  108.5695 H         5        0    0.0000
     34 H          -0.1502   35.7277  108.9245 H         5        0    0.0000
     35 H          -1.9419   37.6235  108.5445 H         5        0    0.0000
     36 H          -0.6299   38.5415  107.8137 H         5        0    0.0000
     37 C          -1.1986   36.7640  106.6795 C.3       6        0    0.0000
     38 C          -0.7689   37.5980  105.4676 C.3       6        0    0.0000
     39 H          -0.6364   35.8223  106.7066 H         6        0    0.0000
     40 H          -2.2589   36.4955  106.5945 H         6        0    0.0000
     41 H          -1.6004   38.2300  105.1320 H         6        0    0.0000
     42 H           0.0482   38.2745  105.7471 H         6        0    0.0000
     43 C          -0.2975   36.7047  104.2687 C.3       7        0    0.0000
     44 C          -0.8025   37.2290  102.9199 C.3       7        0    0.0000
     45 H           0.7987   36.6620  104.2691 H         7        0    0.0000
     46 H          -0.6527   35.6794  104.4305 H         7        0    0.0000
     47 H          -1.8747   37.4532  102.9810 H         7        0    0.0000
     48 H          -0.2976   38.1702  102.6694 H         7        0    0.0000
     49 C          -0.5660   36.2039  101.7578 C.3       8        0    0.0000
     50 C          -0.7181   36.8479  100.3753 C.3       8        0    0.0000
     51 H           0.4377   35.7740  101.8642 H         8        0    0.0000
     52 H          -1.2768   35.3754  101.8670 H         8        0    0.0000
     53 H          -1.7431   37.2153  100.2422 H         8        0    0.0000
     54 H          -0.0575   37.7198  100.2918 H         8        0    0.0000
     55 C          -0.3848   35.8484   99.2144 C.3       9        0    0.0000
     56 C          -0.5834   36.4778   97.8312 C.3       9        0    0.0000
     57 H           0.6520   35.5081   99.3275 H         9        0    0.0000
     58 H          -1.0209   34.9607   99.3186 H         9        0    0.0000
     59 H          -1.6176   36.8273   97.7219 H         9        0    0.0000
     60 H           0.0602   37.3596   97.7232 H         9        0    0.0000
     61 C          -0.2640   35.4739   96.6703 C.3      10        0    0.0000
     62 C          -0.4674   36.1018   95.2870 C.3      10        0    0.0000
     63 H           0.7713   35.1272   96.7775 H        10        0    0.0000
     64 H          -0.9051   34.5905   96.7803 H        10        0    0.0000
     65 H          -1.5034   36.4459   95.1787 H        10        0    0.0000
     66 H           0.1716   36.9869   95.1781 H        10        0    0.0000
     67 C          -0.1440   35.0992   94.1261 C.3      11        0    0.0000
     68 C          -0.3511   35.7259   92.7429 C.3      11        0    0.0000
     69 H           0.8929   34.7572   94.2328 H        11        0    0.0000
     70 H          -0.7810   34.2128   94.2367 H        11        0    0.0000
     71 H          -1.3884   36.0665   92.6357 H        11        0    0.0000
     72 H           0.2848   36.6131   92.6328 H        11        0    0.0000
     73 C          -0.0257   34.7239   91.5820 C.3      12        0    0.0000
     74 C          -0.2316   35.3509   90.1987 C.3      12        0    0.0000
     75 H           1.0113   34.3826   91.6897 H        12        0    0.0000
     76 H          -0.6622   33.8371   91.6915 H        12        0    0.0000
     77 H          -1.2682   35.6938   90.0916 H        12        0    0.0000
     78 H           0.4061   36.2367   90.0885 H        12        0    0.0000
     79 C           0.0913   34.3482   89.0378 C.3      13        0    0.0000
     80 C          -0.1092   34.9770   87.6545 C.3      13        0    0.0000
     81 H           1.1267   34.0022   89.1472 H        13        0    0.0000
     82 H          -0.5493   33.4642   89.1456 H        13        0    0.0000
     83 H          -1.1429   35.3285   87.5474 H        13        0    0.0000
     84 H           0.5360   35.8574   87.5444 H        13        0    0.0000
     85 C           0.2055   33.9716   86.4936 C.3      14        0    0.0000
     86 C           0.0036   34.6000   85.1104 C.3      14        0    0.0000
     87 H           1.2395   33.6209   86.6002 H        14        0    0.0000
     88 H          -0.4389   33.0907   86.6043 H        14        0    0.0000
     89 H          -1.0137   35.0018   85.0246 H        14        0    0.0000
     90 H           0.6888   35.4464   84.9780 H        14        0    0.0000
     91 C           0.2403   33.5721   83.9506 C.3      15        0    0.0000
     92 C           0.0402   34.2009   82.5673 C.3      15        0    0.0000
     93 H           1.2570   33.1693   84.0372 H        15        0    0.0000
     94 H          -0.4459   32.7263   84.0822 H        15        0    0.0000
     95 H          -1.0261   34.2114   82.3096 H        15        0    0.0000
     96 H           0.3720   35.2465   82.5778 H        15        0    0.0000
     97 C           0.8232   33.4335   81.4469 C.3      16        0    0.0000
     98 C           0.6324   34.0691   80.0654 C.3      16        0    0.0000
     99 H           1.8884   33.4156   81.7089 H        16        0    0.0000
    100 H           0.4852   32.3899   81.4307 H        16        0    0.0000
    101 H           1.3140   33.6063   79.3410 H        16        0    0.0000
    102 H          -0.3862   33.8829   79.7031 H        16        0    0.0000
    103 C           0.8877   35.6158   80.0827 C.3      17        0    0.0000
    104 C           0.2567   36.3221   78.8777 C.3      17        0    0.0000
    105 H           0.4848   36.0302   81.0151 H        17        0    0.0000
    106 H           1.9698   35.7954   80.0998 H        17        0    0.0000
    107 H           0.8429   36.1186   77.9730 H        17        0    0.0000
    108 H          -0.7507   35.9278   78.6957 H        17        0    0.0000
    109 C           0.1629   37.8737   79.0807 C.3      18        0    0.0000
    110 C           0.5179   38.6487   77.8070 C.3      18        0    0.0000
    111 H          -0.8543   38.1272   79.4040 H        18        0    0.0000
    112 H           0.8348   38.1647   79.8977 H        18        0    0.0000
    113 H           1.3156   38.1298   77.2610 H        18        0    0.0000
    114 H          -0.3493   38.6874   77.1362 H        18        0    0.0000
    115 C           0.9854   40.1132   78.1135 C.3      19        0    0.0000
    116 C           1.9084   40.6685   77.0231 C.3      19        0    0.0000
    117 H           0.1000   40.7524   78.2183 H        19        0    0.0000
    118 H           1.4989   40.1250   79.0829 H        19        0    0.0000
    119 H           2.6009   39.8885   76.6833 H        19        0    0.0000
    120 H           1.3187   40.9691   76.1483 H        19        0    0.0000
    121 C           2.7400   41.9011   77.5197 C.3      20        0    0.0000
    122 C           3.7964   42.3383   76.4990 C.3      20        0    0.0000
    123 H           2.0528   42.7304   77.7284 H        20        0    0.0000
    124 H           3.2207   41.6431   78.4715 H        20        0    0.0000
    125 H           4.4457   41.4917   76.2435 H        20        0    0.0000
    126 H           3.3111   42.6553   75.5676 H        20        0    0.0000
    127 C           4.6857   43.5145   77.0311 C.3      21        0    0.0000
    128 C           5.7142   43.9801   75.9944 C.3      21        0    0.0000
    129 H           4.0339   44.3498   77.3157 H        21        0    0.0000
    130 H           5.1953   43.1868   77.9456 H        21        0    0.0000
    131 H           6.4523   43.1885   75.8151 H        21        0    0.0000
    132 H           5.2197   44.1730   75.0343 H        21        0    0.0000
    133 C           6.4662   45.2794   76.4456 C.3      22        0    0.0000
    134 C           7.5579   45.6932   75.4527 C.3      22        0    0.0000
    135 H           5.7351   46.0894   76.5600 H        22        0    0.0000
    136 H           6.9043   45.1083   77.4367 H        22        0    0.0000
    137 H           8.2255   44.8458   75.2530 H        22        0    0.0000
    138 H           7.1068   45.9720   74.4923 H        22        0    0.0000
    139 C           8.4132   46.8974   75.9778 C.3      23        0    0.0000
    140 C           9.8016   46.9495   75.3309 C.3      23        0    0.0000
    141 H           7.8704   47.8299   75.7791 H        23        0    0.0000
    142 H           8.5087   46.8147   77.0675 H        23        0    0.0000
    143 H          10.2251   45.9395   75.2672 H        23        0    0.0000
    144 H           9.7237   47.3239   74.3026 H        23        0    0.0000
    145 C          10.7944   47.8643   76.1278 C.3      24        0    0.0000
    146 C          12.2480   47.6700   75.6825 C.3      24        0    0.0000
    147 H          10.4963   48.9114   75.9927 H        24        0    0.0000
    148 H          10.6962   47.6444   77.1981 H        24        0    0.0000
    149 H          12.5321   46.6145   75.7758 H        24        0    0.0000
    150 H          12.3551   47.9326   74.6228 H        24        0    0.0000
    151 C          13.2475   48.5384   76.5218 C.3      25        0    0.0000
    152 C          14.6924   48.3995   76.0297 C.3      25        0    0.0000
    153 H          12.9323   49.5880   76.4716 H        25        0    0.0000
    154 H          13.1783   48.2387   77.5748 H        25        0    0.0000
    155 H          15.3509   49.0625   76.6045 H        25        0    0.0000
    156 H          15.0505   47.3763   76.1983 H        25        0    0.0000
    157 C          14.8366   48.7408   74.5065 C.3      26        0    0.0000
    158 C          16.3019   48.8048   74.0618 C.3      26        0    0.0000
    159 H          14.2989   47.9839   73.9221 H        26        0    0.0000
    160 H          14.3418   49.7001   74.3106 H        26        0    0.0000
    161 H          16.7773   47.8245   74.1906 H        26        0    0.0000
    162 H          16.3605   49.0452   72.9930 H        26        0    0.0000
    163 C          17.1207   49.8729   74.8657 C.3      27        0    0.0000
    164 C          18.5428   50.0454   74.3208 C.3      27        0    0.0000
    165 H          16.5852   50.8297   74.8292 H        27        0    0.0000
    166 H          17.1558   49.5715   75.9199 H        27        0    0.0000
    167 H          18.6467   51.0287   73.8454 H        27        0    0.0000
    168 H          19.2673   50.0153   75.1440 H        27        0    0.0000
    169 C          18.9175   48.9375   73.2770 C.3      28        0    0.0000
    170 C          20.2715   49.2024   72.6096 C.3      28        0    0.0000
    171 H          18.9319   47.9646   73.7839 H        28        0    0.0000
    172 H          18.1276   48.8854   72.5176 H        28        0    0.0000
    173 H          20.1255   49.7304   71.6591 H        28        0    0.0000
    174 H          20.8816   49.8578   73.2435 H        28        0    0.0000
    175 C          21.0678   47.8801   72.3358 C.3      29        0    0.0000
    176 C          22.4054   48.1421   71.6350 C.3      29        0    0.0000
    177 H          21.2374   47.3656   73.2897 H        29        0    0.0000
    178 H          20.4470   47.2136   71.7244 H        29        0    0.0000
    179 H          23.0157   47.2305   71.6362 H        29        0    0.0000
    180 H          22.2341   48.4051   70.5838 H        29        0    0.0000
    181 C          23.2183   49.2953   72.3183 C.3      30        0    0.0000
    182 C          24.5541   49.5600   71.6151 C.3      30        0    0.0000
    183 H          22.6069   50.2062   72.3196 H        30        0    0.0000
    184 H          23.3921   49.0310   73.3688 H        30        0    0.0000
    185 H          24.5964   50.5994   71.2668 H        30        0    0.0000
    186 H          25.3834   49.4305   72.3216 H        30        0    0.0000
    187 C          24.7800   48.6073   70.3907 C.3      31        0    0.0000
    188 C          26.2027   48.7096   69.8299 C.3      31        0    0.0000
    189 H          24.5715   47.5762   70.7019 H        31        0    0.0000
    190 H          24.0495   48.8548   69.6106 H        31        0    0.0000
    191 H          26.7980   47.8473   70.1549 H        31        0    0.0000
    192 H          26.1779   48.6801   68.7335 H        31        0    0.0000
    193 C          26.9272   50.0237   70.2837 C.3      32        0    0.0000
    194 C          28.3098   50.1765   69.6403 C.3      32        0    0.0000
    195 H          26.2954   50.8828   70.0261 H        32        0    0.0000
    196 H          27.0196   50.0171   71.3768 H        32        0    0.0000
    197 H          29.0842   49.7967   70.3183 H        32        0    0.0000
    198 H          28.3681   49.5730   68.7260 H        32        0    0.0000
    199 C          28.6376   51.6673   69.2835 C.3      33        0    0.0000
    200 C          29.9867   51.8108   68.5705 C.3      33        0    0.0000
    201 H          27.8339   52.0645   68.6512 H        33        0    0.0000
    202 H          28.6349   52.2606   70.2063 H        33        0    0.0000
    203 H          30.8040   51.7772   69.3015 H        33        0    0.0000
    204 H          30.1418   50.9679   67.8856 H        33        0    0.0000
    205 C          30.0901   53.1475   67.7581 C.3      34        0    0.0000
    206 C          31.3005   53.1638   66.8180 C.3      34        0    0.0000
    207 H          29.1656   53.2845   67.1835 H        34        0    0.0000
    208 H          30.1500   53.9860   68.4630 H        34        0    0.0000
    209 H          32.2268   53.0550   67.3955 H        34        0    0.0000
    210 H          31.2551   52.3092   66.1315 H        34        0    0.0000
    211 C          31.3816   54.4840   65.9767 C.3      35        0    0.0000
    212 C          32.7732   55.1239   66.0327 C.3      35        0    0.0000
    213 H          31.1131   54.2580   64.9373 H        35        0    0.0000
    214 H          30.6283   55.1885   66.3506 H        35        0    0.0000
    215 H          33.2117   54.9840   67.0285 H        35        0    0.0000
    216 H          33.4442   54.6279   65.3205 H        35        0    0.0000
    217 C          32.7356   56.6570   65.7079 C.3      36        0    0.0000
    218 C          34.1380   57.2724   65.6471 C.3      36        0    0.0000
    219 H          32.2189   56.8033   64.7513 H        36        0    0.0000
    220 H          32.1344   57.1657   66.4717 H        36        0    0.0000
    221 H          34.6366   57.1690   66.6188 H        36        0    0.0000
    222 H          34.7544   56.7324   64.9177 H        36        0    0.0000
    223 C          34.1044   58.7899   65.2553 C.3      37        0    0.0000
    224 C          35.4515   59.2796   64.7126 C.3      37        0    0.0000
    225 H          33.3183   58.9443   64.5058 H        37        0    0.0000
    226 H          33.8185   59.3765   66.1372 H        37        0    0.0000
    227 H          36.1809   59.3551   65.5286 H        37        0    0.0000
    228 H          35.8547   58.5535   63.9958 H        37        0    0.0000
    229 C          35.3361   60.6750   64.0074 C.3      38        0    0.0000
    230 C          36.1487   60.7388   62.7095 C.3      38        0    0.0000
    231 H          34.2785   60.8797   63.7996 H        38        0    0.0000
    232 H          35.6766   61.4519   64.7031 H        38        0    0.0000
    233 H          37.1255   61.2006   62.8996 H        38        0    0.0000
    234 H          36.3460   59.7253   62.3390 H        38        0    0.0000
    235 C          35.4147   61.5526   61.5885 C.3      39        0    0.0000
    236 C          36.0431   62.9328   61.3667 C.3      39        0    0.0000
    237 H          35.4402   60.9736   60.6570 H        39        0    0.0000
    238 H          34.3582   61.6601   61.8638 H        39        0    0.0000
    239 H          36.6228   63.2285   62.2499 H        39        0    0.0000
    240 H          36.7469   62.8950   60.5261 H        39        0    0.0000
    241 C          34.9675   64.0355   61.0760 C.3      40        0    0.0000
    242 C          35.0007   64.5094   59.6188 C.3      40        0    0.0000
    243 H          33.9755   63.6347   61.3187 H        40        0    0.0000
    244 H          35.1386   64.8831   61.7512 H        40        0    0.0000
    245 H          35.7614   65.2900   59.4943 H        40        0    0.0000
    246 H          35.2890   63.6807   58.9602 H        40        0    0.0000
    247 C          33.6164   65.0728   59.1456 C.3      41        0    0.0000
    248 C          33.7572   66.0507   57.9739 C.3      41        0    0.0000
    249 H          32.9720   64.2325   58.8590 H        41        0    0.0000
    250 H          33.1283   65.5693   59.9934 H        41        0    0.0000
    251 H          34.5739   66.7567   58.1691 H        41        0    0.0000
    252 H          34.0233   65.5062   57.0594 H        41        0    0.0000
    253 C          32.4403   66.8607   57.7146 C.3      42        0    0.0000
    254 C          32.6878   68.1182   56.8742 C.3      42        0    0.0000
    255 H          31.7170   66.2077   57.2106 H        42        0    0.0000
    256 H          31.9977   67.1347   58.6803 H        42        0    0.0000
    257 H          33.5756   68.6476   57.2417 H        42        0    0.0000
    258 H          32.8951   67.8403   55.8334 H        42        0    0.0000
    259 C          31.4665   69.1007   56.9012 C.3      43        0    0.0000
    260 C          31.8636   70.5315   56.5215 C.3      43        0    0.0000
    261 H          30.6979   68.7284   56.2127 H        43        0    0.0000
    262 H          31.0238   69.0870   57.9048 H        43        0    0.0000
    263 H          32.7808   70.8201   57.0497 H        43        0    0.0000
    264 H          32.0869   70.5878   55.4488 H        43        0    0.0000
    265 C          30.7384   71.5696   56.8585 C.3      44        0    0.0000
    266 C          31.1972   73.0154   56.6387 C.3      44        0    0.0000
    267 H          29.8609   71.3547   56.2361 H        44        0    0.0000
    268 H          30.4274   71.4280   57.9010 H        44        0    0.0000
    269 H          32.1081   73.2131   57.2172 H        44        0    0.0000
    270 H          31.4537   73.1724   55.5837 H        44        0    0.0000
    271 C          30.1002   74.0562   57.0523 C.3      45        0    0.0000
    272 C          30.5576   75.5019   56.8289 C.3      45        0    0.0000
    273 H          29.1884   73.8568   56.4759 H        45        0    0.0000
    274 H          29.8457   73.9010   58.1081 H        45        0    0.0000
    275 H          31.5065   75.6809   57.3494 H        45        0    0.0000
    276 H          30.7455   75.6764   55.7622 H        45        0    0.0000
    277 C          29.5004   76.5440   57.3328 C.3      46        0    0.0000
    278 C          29.9603   77.9897   57.1146 C.3      46        0    0.0000
    279 H          28.5526   76.3677   56.8092 H        46        0    0.0000
    280 H          29.3093   76.3668   58.3985 H        46        0    0.0000
    281 H          29.2383   78.5229   56.4839 H        46        0    0.0000
    282 H          29.9948   78.5221   58.0732 H        46        0    0.0000
    283 C          31.3740   78.0683   56.4417 C.3      47        0    0.0000
    284 C          31.8468   79.5136   56.2509 C.3      47        0    0.0000
    285 H          32.0917   77.5164   57.0613 H        47        0    0.0000
    286 H          31.3336   77.5547   55.4732 H        47        0    0.0000
    287 H          31.1763   80.0408   55.5609 H        47        0    0.0000
    288 H          31.8038   80.0527   57.2054 H        47        0    0.0000
    289 C          33.3095   79.5913   55.6922 C.3      48        0    0.0000
    290 C          33.7802   81.0366   55.4957 C.3      48        0    0.0000
    291 H          33.9807   79.0679   56.3844 H        48        0    0.0000
    292 H          33.3535   79.0486   54.7398 H        48        0    0.0000
    293 H          33.0304   81.6027   54.9292 H        48        0    0.0000
    294 H          33.8824   81.5344   56.4679 H        48        0    0.0000
    295 C          35.1513   81.1173   54.7401 C.3      49        0    0.0000
    296 C          35.6120   82.5633   54.5254 C.3      49        0    0.0000
    297 H          35.9046   80.5638   55.3143 H        49        0    0.0000
    298 H          35.0534   80.6064   53.7742 H        49        0    0.0000
    299 H          35.5252   83.1286   55.4615 H        49        0    0.0000
    300 H          36.6719   82.5824   54.2430 H        49        0    0.0000
    301 C          34.7800   83.2933   53.4152 C.3      50        0    0.0000
    302 C          35.2869   84.7152   53.1501 C.3      50        0    0.0000
    303 H          34.8238   82.7003   52.4933 H        50        0    0.0000
    304 H          33.7273   83.3204   53.7227 H        50        0    0.0000
    305 H          34.7596   85.1485   52.2913 H        50        0    0.0000
    306 H          35.0688   85.3589   54.0113 H        50        0    0.0000
    307 C          36.8286   84.7534   52.8683 C.3      51        0    0.0000
    308 C          37.3535   86.1839   52.7034 C.3      51        0    0.0000
    309 H          37.3513   84.2536   53.6931 H        51        0    0.0000
    310 H          37.0371   84.1695   51.9632 H        51        0    0.0000
    311 H          38.0393   86.4298   53.5237 H        51        0    0.0000
    312 H          37.9307   86.2680   51.7743 H        51        0    0.0000
    313 C          36.1970   87.2419   52.6774 C.3      52        0    0.0000
    314 C          36.6735   88.6111   52.1800 C.3      52        0    0.0000
    315 H          35.3903   86.8681   52.0348 H        52        0    0.0000
    316 H          35.7786   87.3333   53.6874 H        52        0    0.0000
    317 H          37.4320   89.0157   52.8614 H        52        0    0.0000
    318 H          37.1537   88.5087   51.1990 H        52        0    0.0000
    319 C          35.4985   89.6421   52.0622 C.3      53        0    0.0000
    320 C          35.9818   91.0242   51.6092 C.3      53        0    0.0000
    321 H          34.7559   89.2527   51.3548 H        53        0    0.0000
    322 H          34.9969   89.7192   53.0348 H        53        0    0.0000
    323 H          36.8797   91.3113   52.1703 H        53        0    0.0000
    324 H          36.2681   90.9942   50.5506 H        53        0    0.0000
    325 C          34.8881   92.1299   51.8057 C.3      54        0    0.0000
    326 C          35.3731   93.5129   51.3573 C.3      54        0    0.0000
    327 H          33.9915   91.8446   51.2416 H        54        0    0.0000
    328 H          34.5991   92.1574   52.8637 H        54        0    0.0000
    329 H          35.4384   93.5521   50.2629 H        54        0    0.0000
    330 H          34.6494   94.2809   51.6574 H        54        0    0.0000
    331 C          36.7739   93.8755   51.9604 C.3      55        0    0.0000
    332 C          37.3735   95.1331   51.3216 C.3      55        0    0.0000
    333 H          36.6667   94.0181   53.0429 H        55        0    0.0000
    334 H          37.4505   93.0234   51.8204 H        55        0    0.0000
    335 H          36.5826   95.7281   50.8482 H        55        0    0.0000
    336 H          37.8261   95.7679   52.0934 H        55        0    0.0000
    337 C          38.4616   94.7920   50.2459 C.3      56        0    0.0000
    338 C          39.2229   96.0360   49.7750 C.3      56        0    0.0000
    339 H          39.1611   94.0610   50.6700 H        56        0    0.0000
    340 H          37.9745   94.3037   49.3927 H        56        0    0.0000
    341 H          39.9995   95.7514   49.0543 H        56        0    0.0000
    342 H          38.5417   96.7181   49.2512 H        56        0    0.0000
    343 C          39.8945   96.8068   50.9635 C.3      57        0    0.0000
    344 C          40.6473   98.0565   50.4937 C.3      57        0    0.0000
    345 H          39.1189   97.0849   51.6878 H        57        0    0.0000
    346 H          40.5813   96.1269   51.4827 H        57        0    0.0000
    347 H          40.9654   98.6514   51.3589 H        57        0    0.0000
    348 H          41.5597   97.7668   49.9579 H        57        0    0.0000
    349 C          39.7743   98.9579   49.5542 C.3      58        0    0.0000
    350 C          40.4954  100.2499   49.1545 C.3      58        0    0.0000
    351 H          39.5091   98.3825   48.6585 H        58        0    0.0000
    352 H          38.8334   99.1952   50.0661 H        58        0    0.0000
    353 H          41.3371  100.0205   48.4893 H        58        0    0.0000
    354 H          39.8161  100.9006   48.5900 H        58        0    0.0000
    355 C          41.0341  101.0386   50.3975 C.3      59        0    0.0000
    356 C          41.6082  102.4067   50.0132 C.3      59        0    0.0000
    357 H          40.2169  101.1627   51.1188 H        59        0    0.0000
    358 H          41.8032  100.4339   50.8938 H        59        0    0.0000
    359 H          42.5405  102.5908   50.5612 H        59        0    0.0000
    360 H          41.8618  102.4219   48.9460 H        59        0    0.0000
    361 C          40.6074  103.5759   50.3114 C.3      60        0    0.0000
    362 C          41.2560  104.9538   50.1388 C.3      60        0    0.0000
    363 H          39.7430  103.4807   49.6427 H        60        0    0.0000
    364 H          40.2280  103.4643   51.3347 H        60        0    0.0000
    365 H          42.2118  104.9897   50.6762 H        60        0    0.0000
    366 H          41.4828  105.1329   49.0805 H        60        0    0.0000
    367 C          40.3384  106.1121   50.6620 C.3      61        0    0.0000
    368 C          40.9842  107.4906   50.4835 C.3      61        0    0.0000
    369 H          39.3809  106.0733   50.1279 H        61        0    0.0000
    370 H          40.1155  105.9355   51.7215 H        61        0    0.0000
    371 H          41.9394  107.5310   51.0216 H        61        0    0.0000
    372 H          41.2116  107.6651   49.4245 H        61        0    0.0000
    373 C          40.0637  108.6494   51.0003 C.3      62        0    0.0000
    374 C          40.7244  110.0247   50.8553 C.3      62        0    0.0000
    375 H          39.1187  108.6254   50.4436 H        62        0    0.0000
    376 H          39.8146  108.4608   52.0520 H        62        0    0.0000
    377 H          40.7797  110.3056   49.7962 H        62        0    0.0000
    378 H          40.1148  110.7893   51.3525 H        62        0    0.0000
    379 C          42.1692  110.0567   51.4626 C.3      63        0    0.0000
    380 C          42.9624  111.2876   51.0100 C.3      63        0    0.0000
    381 H          42.0933  110.0397   52.5569 H        63        0    0.0000
    382 H          42.6966  109.1406   51.1692 H        63        0    0.0000
    383 H          42.2758  112.0778   50.6818 H        63        0    0.0000
    384 H          43.5345  111.6969   51.8518 H        63        0    0.0000
    385 C          43.9516  110.9593   49.8390 C.3      64        0    0.0000
    386 C          44.9114  112.1180   49.5472 C.3      64        0    0.0000
    387 H          44.5192  110.0569   50.0980 H        64        0    0.0000
    388 H          43.3691  110.7181   48.9411 H        64        0    0.0000
    389 H          45.0662  112.2150   48.4655 H        64        0    0.0000
    390 H          44.4736  113.0642   49.8888 H        64        0    0.0000
    391 C          46.3035  111.9256   50.2417 C.3      65        0    0.0000
    392 C          47.2829  113.0547   49.9025 C.3      65        0    0.0000
    393 H          46.1529  111.8717   51.3270 H        65        0    0.0000
    394 H          46.7219  110.9595   49.9334 H        65        0    0.0000
    395 H          47.3667  113.1656   48.8142 H        65        0    0.0000
    396 H          46.9045  114.0094   50.2882 H        65        0    0.0000
    397 C          48.7114  112.8005   50.4960 C.3      66        0    0.0000
    398 C          49.6825  113.9439   50.1826 C.3      66        0    0.0000
    399 H          48.6247  112.6674   51.5815 H        66        0    0.0000
    400 H          49.0989  111.8566   50.0929 H        66        0    0.0000
    401 H          50.2870  113.6934   49.3020 H        66        0    0.0000
    402 H          49.1237  114.8542   49.9324 H        66        0    0.0000
    403 C          50.6423  114.2540   51.3826 C.3      67        0    0.0000
    404 C          51.6159  115.3952   51.0679 C.3      67        0    0.0000
    405 H          50.0379  114.5071   52.2625 H        67        0    0.0000
    406 H          51.1993  113.3431   51.6345 H        67        0    0.0000
    407 H          51.0801  116.3522   51.0487 H        67        0    0.0000
    408 H          52.3722  115.4733   51.8588 H        67        0    0.0000
    409 C          52.3416  115.1947   49.6929 C.3      68        0    0.0000
    410 C          53.2903  116.3523   49.3627 C.3      68        0    0.0000
    411 H          52.8972  114.2492   49.7208 H        68        0    0.0000
    412 H          51.5848  115.0922   48.9053 H        68        0    0.0000
    413 H          54.3035  115.9699   49.1873 H        68        0    0.0000
    414 H          52.9743  116.8445   48.4346 H        68        0    0.0000
    415 C          53.3449  117.4210   50.5082 C.3      69        0    0.0000
    416 C          54.2676  118.5952   50.1637 C.3      69        0    0.0000
    417 H          52.3281  117.7854   50.7005 H        69        0    0.0000
    418 H          53.6846  116.9337   51.4305 H        69        0    0.0000
    419 H          54.8700  118.8695   51.0385 H        69        0    0.0000
    420 H          54.9721  118.3014   49.3757 H        69        0    0.0000
    421 C          53.4701  119.8566   49.6838 C.3      70        0    0.0000
    422 C          54.3950  121.0141   49.2916 C.3      70        0    0.0000
    423 H          52.8398  119.5734   48.8316 H        70        0    0.0000
    424 H          52.7917  120.1724   50.4861 H        70        0    0.0000
    425 H          54.8337  121.4660   50.1898 H        70        0    0.0000
    426 H          55.2304  120.6398   48.6870 H        70        0    0.0000
    427 C          53.6439  122.1265   48.4817 C.3      71        0    0.0000
    428 C          54.5564  123.3076   48.1334 C.3      71        0    0.0000
    429 H          53.2368  121.6825   47.5648 H        71        0    0.0000
    430 H          52.7863  122.4746   49.0707 H        71        0    0.0000
    431 H          55.0061  123.7175   49.0463 H        71        0    0.0000
    432 H          55.3848  122.9687   47.4990 H        71        0    0.0000
    433 C          53.7872  124.4538   47.3904 C.3      72        0    0.0000
    434 C          54.6140  125.7407   47.2941 C.3      72        0    0.0000
    435 H          53.5164  124.1047   46.3862 H        72        0    0.0000
    436 H          52.8467  124.6496   47.9201 H        72        0    0.0000
    437 H          55.0094  126.0085   48.2817 H        72        0    0.0000
    438 H          55.4804  125.5831   46.6400 H        72        0    0.0000
    439 C          53.7762  126.9451   46.7417 C.3      73        0    0.0000
    440 C          54.5942  128.2395   46.6751 C.3      73        0    0.0000
    441 H          53.4000  126.6861   45.7443 H        73        0    0.0000
    442 H          52.8974  127.0881   47.3826 H        73        0    0.0000
    443 H          54.0443  129.0034   46.1115 H        73        0    0.0000
    444 H          54.7458  128.6411   47.6847 H        73        0    0.0000
    445 C          55.9933  128.0242   46.0016 C.3      74        0    0.0000
    446 C          56.8106  129.3189   45.9333 C.3      74        0    0.0000
    447 H          56.5438  127.2612   46.5659 H        74        0    0.0000
    448 H          55.8418  127.6213   44.9925 H        74        0    0.0000
    449 H          56.1828  130.1412   45.5683 H        74        0    0.0000
    450 H          57.1496  129.6031   46.9372 H        74        0    0.0000
    451 C          58.0608  129.1837   44.9972 C.3      75        0    0.0000
    452 C          58.9230  130.4509   44.9930 C.3      75        0    0.0000
    453 H          58.6574  128.3239   45.3262 H        75        0    0.0000
    454 H          57.7180  128.9586   43.9797 H        75        0    0.0000
    455 H          58.6646  131.0788   44.1313 H        75        0    0.0000
    456 H          58.7187  131.0479   45.8904 H        75        0    0.0000
    457 C          60.4557  130.1263   44.9402 C.3      76        0    0.0000
    458 C          61.3179  131.3935   44.9360 C.3      76        0    0.0000
    459 H          60.7141  129.4984   45.8018 H        76        0    0.0000
    460 H          60.6601  129.5293   44.0427 H        76        0    0.0000
    461 H          61.1479  131.9611   44.0127 H        76        0    0.0000
    462 H          61.0277  132.0487   45.7666 H        76        0    0.0000
    463 C          62.8474  131.0717   45.0568 C.3      77        0    0.0000
    464 C          63.7088  132.3394   45.0655 C.3      77        0    0.0000
    465 H          63.0162  130.4960   45.9753 H        77        0    0.0000
    466 H          63.1397  130.4241   44.2209 H        77        0    0.0000
    467 H          63.9625  132.6288   44.0382 H        77        0    0.0000
    468 H          63.1442  133.1749   45.4977 H        77        0    0.0000
    469 C          65.0351  132.1510   45.8796 C.3      78        0    0.0000
    470 C          65.9041  133.4135   45.8746 C.3      78        0    0.0000
    471 H          64.7810  131.8733   46.9101 H        78        0    0.0000
    472 H          65.5940  131.3080   45.4548 H        78        0    0.0000
    473 H          66.7264  133.3070   46.5929 H        78        0    0.0000
    474 H          66.3634  133.5500   44.8877 H        78        0    0.0000
    475 C          65.0839  134.7006   46.2326 C.3      79        0    0.0000
    476 C          65.9653  135.9531   46.2922 C.3      79        0    0.0000
    477 H          64.2911  134.8338   45.4861 H        79        0    0.0000
    478 H          64.5854  134.5453   47.1974 H        79        0    0.0000
    479 H          66.3092  136.2193   45.2850 H        79        0    0.0000
    480 H          65.3826  136.8059   46.6619 H        79        0    0.0000
    481 C          67.2155  135.7563   47.2174 C.3      80        0    0.0000
    482 C          68.0682  137.0258   47.3193 C.3      80        0    0.0000
    483 H          66.8733  135.4520   48.2143 H        80        0    0.0000
    484 H          67.8189  134.9283   46.8251 H        80        0    0.0000
    485 H          68.8210  137.0383   46.5214 H        80        0    0.0000
    486 H          67.4402  137.9135   47.1739 H        80        0    0.0000
    487 C          68.7963  137.1429   48.7027 C.3      81        0    0.0000
    488 C          69.7705  138.3252   48.7480 C.3      81        0    0.0000
    489 H          68.0414  137.2471   49.4918 H        81        0    0.0000
    490 H          69.3320  136.2063   48.9008 H        81        0    0.0000
    491 H          70.0533  138.6189   47.7295 H        81        0    0.0000
    492 H          69.2837  139.1966   49.2034 H        81        0    0.0000
    493 C          71.0711  137.9926   49.5575 C.3      82        0    0.0000
    494 C          72.2270  138.9386   49.2139 C.3      82        0    0.0000
    495 H          70.8446  138.0493   50.6294 H        82        0    0.0000
    496 H          71.3604  136.9547   49.3511 H        82        0    0.0000
    497 H          72.3353  139.0202   48.1252 H        82        0    0.0000
    498 H          72.0104  139.9478   49.5854 H        82        0    0.0000
    499 C          73.5893  138.4576   49.8225 C.3      83        0    0.0000
    500 C          74.7572  138.6371   48.8463 C.3      83        0    0.0000
    501 H          73.7814  139.0179   50.7459 H        83        0    0.0000
    502 H          73.4962  137.4024   50.1077 H        83        0    0.0000
    503 H          74.4881  138.2381   47.8604 H        83        0    0.0000
    504 H          74.9703  139.7042   48.7068 H        83        0    0.0000
    505 C          76.0611  137.9220   49.3421 C.3      84        0    0.0000
    506 C          77.3294  138.5646   48.7698 C.3      84        0    0.0000
    507 H          76.0859  137.9522   50.4384 H        84        0    0.0000
    508 H          76.0142  136.8636   49.0571 H        84        0    0.0000
    509 H          77.3364  138.4742   47.6765 H        84        0    0.0000
    510 H          77.3430  139.6377   48.9973 H        84        0    0.0000
    511 C          78.6355  137.9108   49.3392 C.3      85        0    0.0000
    512 C          79.8937  138.3989   48.6127 C.3      85        0    0.0000
    513 H          78.7071  138.1386   50.4099 H        85        0    0.0000
    514 H          78.5512  136.8203   49.2541 H        85        0    0.0000
    515 H          79.7816  138.2583   47.5305 H        85        0    0.0000
    516 H          80.0301  139.4748   48.7782 H        85        0    0.0000
    517 C          81.1841  137.6469   49.0890 C.3      86        0    0.0000
    518 C          82.4182  138.0326   48.2661 C.3      86        0    0.0000
    519 H          81.3536  137.8720   50.1493 H        86        0    0.0000
    520 H          81.0091  136.5661   49.0205 H        86        0    0.0000
    521 H          82.1108  138.4334   47.2923 H        86        0    0.0000
    522 H          82.9745  138.8304   48.7737 H        86        0    0.0000
    523 C          83.3796  136.8167   48.0315 C.3      87        0    0.0000
    524 C          84.5992  137.1957   47.1841 C.3      87        0    0.0000
    525 H          83.7038  136.4293   49.0053 H        87        0    0.0000
    526 H          82.8178  136.0109   47.5430 H        87        0    0.0000
    527 H          84.2902  137.8257   46.3408 H        87        0    0.0000
    528 H          85.3018  137.7904   47.7809 H        87        0    0.0000
    529 C          85.3493  135.9372   46.6264 C.3      88        0    0.0000
    530 C          86.6206  136.3124   45.8570 C.3      88        0    0.0000
    531 H          85.5984  135.2740   47.4640 H        88        0    0.0000
    532 H          84.6662  135.3784   45.9746 H        88        0    0.0000
    533 H          86.3593  136.6955   44.8628 H        88        0    0.0000
    534 H          87.1502  137.1203   46.3768 H        88        0    0.0000
    535 C          87.5946  135.0955   45.6896 C.3      89        0    0.0000
    536 C          88.9482  135.5113   45.1031 C.3      89        0    0.0000
    537 H          87.7385  134.6206   46.6680 H        89        0    0.0000
    538 H          87.1184  134.3477   45.0434 H        89        0    0.0000
    539 H          88.8475  135.7105   44.0290 H        89        0    0.0000
    540 H          89.2877  136.4460   45.5664 H        89        0    0.0000
    541 C          90.0486  134.4146   45.3127 C.3      90        0    0.0000
    542 C          91.3735  135.0077   45.8046 C.3      90        0    0.0000
    543 H          89.6776  133.6744   46.0324 H        90        0    0.0000
    544 H          90.2030  133.8831   44.3655 H        90        0    0.0000
    545 H          92.0545  135.1604   44.9582 H        90        0    0.0000
    546 H          91.2008  135.9944   46.2520 H        90        0    0.0000
    547 C          92.0791  134.0900   46.8617 C.3      91        0    0.0000
    548 C          92.8437  134.8991   47.9151 C.3      91        0    0.0000
    549 H          91.3214  133.4621   47.3467 H        91        0    0.0000
    550 H          92.7638  133.4106   46.3392 H        91        0    0.0000
    551 H          93.6399  135.4826   47.4363 H        91        0    0.0000
    552 H          92.1713  135.6197   48.3970 H        91        0    0.0000
    553 C          93.4805  133.9859   49.0187 C.3      92        0    0.0000
    554 C          94.9670  134.2888   49.2367 C.3      92        0    0.0000
    555 H          92.9269  134.1251   49.9556 H        92        0    0.0000
    556 H          93.3491  132.9362   48.7282 H        92        0    0.0000
    557 H          95.4117  134.6759   48.3115 H        92        0    0.0000
    558 H          95.0839  135.0733   49.9947 H        92        0    0.0000
    559 C          95.7708  133.0223   49.6922 C.3      93        0    0.0000
    560 C          97.2843  133.2086   49.5384 C.3      93        0    0.0000
    561 H          95.5231  132.8037   50.7384 H        93        0    0.0000
    562 H          95.4361  132.1600   49.1024 H        93        0    0.0000
    563 H          97.5166  133.5882   48.5357 H        93        0    0.0000
    564 H          97.6452  133.9603   50.2513 H        93        0    0.0000
    565 C          98.0736  131.8739   49.7687 C.3      94        0    0.0000
    566 C          99.5691  132.0242   49.4687 C.3      94        0    0.0000
    567 H          97.9289  131.5522   50.8075 H        94        0    0.0000
    568 H          97.6392  131.0920   49.1334 H        94        0    0.0000
    569 H          99.7105  132.5374   48.5094 H        94        0    0.0000
    570 H         100.0452  132.6498   50.2338 H        94        0    0.0000
    571 C         100.3063  130.6418   49.4156 C.3      95        0    0.0000
    572 C         101.7983  130.7909   49.0981 C.3      95        0    0.0000
    573 H         100.1758  130.1342   50.3794 H        95        0    0.0000
    574 H          99.8219  130.0115   48.6595 H        95        0    0.0000
    575 H         101.9318  131.4031   48.1975 H        95        0    0.0000
    576 H         102.3060  131.3179   49.9154 H        95        0    0.0000
    577 C         102.4998  129.4067   48.8766 C.3      96        0    0.0000
    578 C         104.0132  129.4788   49.1082 C.3      96        0    0.0000
    579 H         102.0503  128.6701   49.5540 H        96        0    0.0000
    580 H         102.2915  129.0639   47.8555 H        96        0    0.0000
    581 H         104.4936  130.0260   48.2877 H        96        0    0.0000
    582 H         104.2268  130.0381   50.0275 H        96        0    0.0000
    583 C         104.6658  128.0577   49.2182 C.3      97        0    0.0000
    584 C         105.7052  127.9813   50.3419 C.3      97        0    0.0000
    585 H         103.8741  127.3172   49.3871 H        97        0    0.0000
    586 H         105.1317  127.8072   48.2571 H        97        0    0.0000
    587 H         106.6776  128.3375   49.9797 H        97        0    0.0000
    588 H         105.4154  128.6424   51.1681 H        97        0    0.0000
    589 C         105.8751  126.5248   50.8961 C.3      98        0    0.0000
    590 C         107.3098  126.2415   51.3548 C.3      98        0    0.0000
    591 H         105.1779  126.3804   51.7307 H        98        0    0.0000
    592 H         105.5826  125.8127   50.1144 H        98        0    0.0000
    593 H         108.0216  126.5640   50.5847 H        98        0    0.0000
    594 H         107.5377  126.8220   52.2573 H        98        0    0.0000
    595 C         107.5475  124.7219   51.6579 C.3      99        0    0.0000
    596 C         109.0339  124.3493   51.6287 C.3      99        0    0.0000
    597 H         107.1199  124.4862   52.6403 H        99        0    0.0000
    598 H         106.9953  124.1240   50.9223 H        99        0    0.0000
    599 H         109.4861  124.6800   50.6855 H        99        0    0.0000
    600 H         109.5680  124.8696   52.4335 H        99        0    0.0000
    601 C         109.2629  122.8064   51.7854 C.3     100        0    0.0000
    602 C         110.7417  122.4232   51.6618 C.3     100        0    0.0000
    603 H         108.8719  122.4881   52.7597 H       100        0    0.0000
    604 H         108.6734  122.2823   51.0229 H       100        0    0.0000
    605 H         111.1430  122.7765   50.7039 H       100        0    0.0000
    606 H         111.3252  122.9165   52.4490 H       100        0    0.0000
    607 C         110.9645  120.8747   51.7627 C.3     101        0    0.0000
    608 C         112.3971  120.4691   51.3989 C.3     101        0    0.0000
    609 H         110.7292  120.5495   52.7837 H       101        0    0.0000
    610 H         110.2509  120.3708   51.0992 H       101        0    0.0000
    611 H         112.6607  120.8654   50.4105 H       101        0    0.0000
    612 H         113.1050  120.9075   52.1132 H       101        0    0.0000
    613 C         112.5892  118.9134   51.3873 C.3     102        0    0.0000
    614 C         113.9854  118.5042   50.9051 C.3     102        0    0.0000
    615 H         112.4126  118.5277   52.3990 H       102        0    0.0000
    616 H         111.8226  118.4672   50.7417 H       102        0    0.0000
    617 H         114.1669  118.9007   49.8985 H       102        0    0.0000
    618 H         114.7516  118.9398   51.5583 H       102        0    0.0000
    619 C         114.1714  116.9479   50.8763 C.3     103        0    0.0000
    620 C         115.6473  116.5406   50.8053 C.3     103        0    0.0000
    621 H         113.7056  116.5194   51.7723 H       103        0    0.0000
    622 H         113.6275  116.5427   50.0140 H       103        0    0.0000
    623 H         116.0781  116.8533   49.8461 H       103        0    0.0000
    624 H         116.2174  117.0544   51.5892 H       103        0    0.0000
    625 C         115.8452  114.9940   50.9678 C.3     104        0    0.0000
    626 C         117.2891  114.6280   51.3289 C.3     104        0    0.0000
    627 H         115.1597  114.6293   51.7428 H       104        0    0.0000
    628 H         115.5546  114.5001   50.0324 H       104        0    0.0000
    629 H         117.9643  114.9106   50.5117 H       104        0    0.0000
    630 H         117.6106  115.1928   52.2127 H       104        0    0.0000
    631 C         117.4592  113.0967   51.6183 C.3     105        0    0.0000
    632 C         118.9298  112.6956   51.7777 C.3     105        0    0.0000
    633 H         116.8998  112.8445   52.5276 H       105        0    0.0000
    634 H         117.0011  112.5290   50.7989 H       105        0    0.0000
    635 H         119.5045  113.0167   50.9001 H       105        0    0.0000
    636 H         119.3671  113.2060   52.6447 H       105        0    0.0000
    637 C         119.1073  111.1487   51.9596 C.3     106        0    0.0000
    638 C         120.5798  110.7250   51.9256 C.3     106        0    0.0000
    639 H         118.6519  110.8501   52.9119 H       106        0    0.0000
    640 H         118.5492  110.6332   51.1681 H       106        0    0.0000
    641 H         121.0548  111.0888   51.0060 H       106        0    0.0000
    642 H         121.1222  111.1822   52.7624 H       106        0    0.0000
    643 C         120.7522  109.1687   52.0018 C.3     107        0    0.0000
    644 C         122.2104  108.7359   51.8138 C.3     107        0    0.0000
    645 H         120.3780  108.8186   52.9718 H       107        0    0.0000
    646 H         120.1202  108.7050   51.2342 H       107        0    0.0000
    647 H         122.6513  109.2613   50.9576 H       107        0    0.0000
    648 H         122.8023  109.0159   52.6940 H       107        0    0.0000
    649 C         122.3467  107.1913   51.5836 C.3     108        0    0.0000
    650 C         123.7947  106.7704   51.3092 C.3     108        0    0.0000
    651 H         121.9637  106.6669   52.4678 H       108        0    0.0000
    652 H         121.7048  106.9011   50.7426 H       108        0    0.0000
    653 H         124.2730  107.4883   50.6314 H       108        0    0.0000
    654 H         124.3733  106.7834   52.2412 H       108        0    0.0000
    655 C         123.8876  105.3391   50.6767 C.3     109        0    0.0000
    656 C         125.3350  104.9222   50.3932 C.3     109        0    0.0000
    657 H         123.4157  104.6202   51.3578 H       109        0    0.0000
    658 H         123.3032  105.3240   49.7484 H       109        0    0.0000
    659 H         125.7893  105.6092   49.6685 H       109        0    0.0000
    660 H         125.9329  104.9914   51.3105 H       109        0    0.0000
    661 C         125.4338  103.4608   49.8347 C.3     110        0    0.0000
    662 C         126.8835  102.9730   49.7372 C.3     110        0    0.0000
    663 H         124.8555  102.7935   50.4858 H       110        0    0.0000
    664 H         124.9583  103.4269   48.8467 H       110        0    0.0000
    665 H         127.3392  103.3315   48.8059 H       110        0    0.0000
    666 H         127.4772  103.3909   50.5596 H       110        0    0.0000
    667 C         126.9886  101.4095   49.7819 C.3     111        0    0.0000
    668 C         128.4420  100.9264   49.8378 C.3     111        0    0.0000
    669 H         126.4364  101.0429   50.6561 H       111        0    0.0000
    670 H         126.4885  100.9961   48.8973 H       111        0    0.0000
    671 H         129.1146  101.7147   49.4775 H       111        0    0.0000
    672 H         128.7292  100.7173   50.8758 H       111        0    0.0000
    673 C         128.6721   99.6347   48.9799 C.3     112        0    0.0000
    674 C         130.1527   99.2464   48.9002 C.3     112        0    0.0000
    675 H         128.0906   98.8127   49.4154 H       112        0    0.0000
    676 H         128.2728   99.8037   47.9722 H       112        0    0.0000
    677 H         130.6882   99.6232   49.7804 H       112        0    0.0000
    678 H         130.2563   98.1543   48.9120 H       112        0    0.0000
    679 C         130.8449   99.8058   47.6097 C.3     113        0    0.0000
    680 C         132.0455   98.9556   47.1796 C.3     113        0    0.0000
    681 H         130.1046   99.8475   46.8012 H       113        0    0.0000
    682 H         131.1636  100.8384   47.7987 H       113        0    0.0000
    683 H         132.9490   99.2869   47.7064 H       113        0    0.0000
    684 H         131.8838   97.9074   47.4600 H       113        0    0.0000
    685 C         132.3044   99.0315   45.6354 C.3     114        0    0.0000
    686 C         133.2613   97.9360   45.1524 C.3     114        0    0.0000
    687 H         131.3441   98.9500   45.1114 H       114        0    0.0000
    688 H         132.7124  100.0207   45.3935 H       114        0    0.0000
    689 H         134.2657   98.1077   45.5589 H       114        0    0.0000
    690 H         132.9331   96.9582   45.5263 H       114        0    0.0000
    691 C         133.3528   97.8741   43.5887 C.3     115        0    0.0000
    692 C         134.1725   96.6741   43.1018 C.3     115        0    0.0000
    693 H         132.3371   97.8279   43.1766 H       115        0    0.0000
    694 H         133.7988   98.8075   43.2234 H       115        0    0.0000
    695 H         134.1579   96.6284   42.0058 H       115        0    0.0000
    696 H         135.2223   96.7906   43.3983 H       115        0    0.0000
    697 C         133.6342   95.3165   43.6714 C.3     116        0    0.0000
    698 C         134.4750   94.1199   43.2126 C.3     116        0    0.0000
    699 H         133.6247   95.3716   44.7670 H       116        0    0.0000
    700 H         132.5921   95.1880   43.3534 H       116        0    0.0000
    701 H         135.4339   94.1076   43.7454 H       116        0    0.0000
    702 H         133.9633   93.1825   43.4633 H       116        0    0.0000
    703 C         134.7541   94.1465   41.6703 C.3     117        0    0.0000
    704 C         135.8777   93.1853   41.2668 C.3     117        0    0.0000
    705 H         133.8296   93.8885   41.1391 H       117        0    0.0000
    706 H         135.0116   95.1712   41.3751 H       117        0    0.0000
    707 H         135.7766   92.9111   40.2094 H       117        0    0.0000
    708 H         136.8515   93.6796   41.3722 H       117        0    0.0000
    709 C         135.8790   91.8769   42.1302 C.3     118        0    0.0000
    710 C         136.9070   90.8543   41.6337 C.3     118        0    0.0000
    711 H         136.0867   92.1425   43.1742 H       118        0    0.0000
    712 H         134.8732   91.4393   42.1105 H       118        0    0.0000
    713 H         137.5025   90.4802   42.4757 H       118        0    0.0000
    714 H         136.3949   89.9865   41.1998 H       118        0    0.0000
    715 C         137.8752   91.4589   40.5592 C.3     119        0    0.0000
    716 C         138.8869   90.4292   40.0440 C.3     119        0    0.0000
    717 H         137.2786   91.8497   39.7256 H       119        0    0.0000
    718 H         138.4010   92.3154   40.9990 H       119        0    0.0000
    719 H         138.3879   89.7099   39.3828 H       119        0    0.0000
    720 H         139.6577   90.9273   39.4430 H       119        0    0.0000
    721 C         139.5829   89.6456   41.2097 C.3     120        0    0.0000
    722 C         140.5209   88.5489   40.6935 C.3     120        0    0.0000
    723 H         140.1418   90.3573   41.8299 H       120        0    0.0000
    724 H         138.8095   89.2072   41.8524 H       120        0    0.0000
    725 H         139.9455   87.6492   40.4425 H       120        0    0.0000
    726 H         141.0109   88.8775   39.7686 H       120        0    0.0000
    727 C         141.6230   88.1679   41.7413 C.3     121        0    0.0000
    728 C         142.6881   87.2369   41.1516 C.3     121        0    0.0000
    729 H         142.0913   89.0880   42.1123 H       121        0    0.0000
    730 H         141.1412   87.6900   42.6033 H       121        0    0.0000
    731 H         142.2216   86.3109   40.7933 H       121        0    0.0000
    732 H         143.1601   87.7091   40.2811 H       121        0    0.0000
    733 C         143.8008   86.8718   42.1937 C.3     122        0    0.0000
    734 C         144.6658   85.6941   41.7312 C.3     122        0    0.0000
    735 H         144.4284   87.7551   42.3650 H       122        0    0.0000
    736 H         143.3232   86.6340   43.1523 H       122        0    0.0000
    737 H         144.0275   84.8703   41.3885 H       122        0    0.0000
    738 H         145.2814   85.9934   40.8739 H       122        0    0.0000
    739 C         145.6063   85.1652   42.8684 C.3     123        0    0.0000
    740 C         146.3901   83.9192   42.4414 C.3     123        0    0.0000
    741 H         146.2995   85.9657   43.1550 H       123        0    0.0000
    742 H         144.9990   84.9422   43.7544 H       123        0    0.0000
    743 H         147.1186   84.1812   41.6641 H       123        0    0.0000
    744 H         146.9629   83.5258   43.2903 H       123        0    0.0000
    745 C         145.4539   82.7866   41.8953 C.3     124        0    0.0000
    746 C         146.2445   81.6088   41.3151 C.3     124        0    0.0000
    747 H         144.8060   82.4400   42.7099 H       124        0    0.0000
    748 H         144.7950   83.2118   41.1280 H       124        0    0.0000
    749 H         145.8452   80.6620   41.6994 H       124        0    0.0000
    750 H         146.1299   81.5796   40.2245 H       124        0    0.0000
    751 C         147.7714   81.6905   41.6607 C.3     125        0    0.0000
    752 C         148.5755   80.5592   41.0105 C.3     125        0    0.0000
    753 H         148.1569   82.6634   41.3314 H       125        0    0.0000
    754 H         147.8895   81.6575   42.7509 H       125        0    0.0000
    755 H         149.2841   80.9721   40.2818 H       125        0    0.0000
    756 H         149.1719   80.0374   41.7691 H       125        0    0.0000
    757 C         147.6555   79.5169   40.2861 C.3     126        0    0.0000
    758 C         148.4609   78.3977   39.6169 C.3     126        0    0.0000
    759 H         146.9577   79.0921   41.0183 H       126        0    0.0000
    760 H         147.0474   80.0413   39.5387 H       126        0    0.0000
    761 H         148.8916   77.7367   40.3792 H       126        0    0.0000
    762 H         147.8005   77.7771   38.9986 H       126        0    0.0000
    763 C         149.6185   78.9543   38.7183 C.3     127        0    0.0000
    764 C         150.6414   77.8731   38.3529 C.3     127        0    0.0000
    765 H         149.1836   79.3840   37.8073 H       127        0    0.0000
    766 H         150.1139   79.7768   39.2491 H       127        0    0.0000
    767 H         150.1960   76.8778   38.4733 H       127        0    0.0000
    768 H         150.9256   77.9654   37.2973 H       127        0    0.0000
    769 C         151.9354   77.9574   39.2338 C.3     128        0    0.0000
    770 C         153.1496   77.3253   38.5445 C.3     128        0    0.0000
    771 H         152.1391   79.0108   39.4630 H       128        0    0.0000
    772 H         151.7443   77.4579   40.1916 H       128        0    0.0000
    773 H         153.2425   76.2722   38.8375 H       128        0    0.0000
    774 H         153.0134   77.3386   37.4560 H       128        0    0.0000
    775 C         154.4852   78.0672   38.8956 C.3     129        0    0.0000
    776 C         155.6576   77.5938   38.0294 C.3     129        0    0.0000
    777 H         154.3344   79.1463   38.7675 H       129        0    0.0000
    778 H         154.7116   77.9045   39.9567 H       129        0    0.0000
    779 H         155.9014   76.5502   38.2641 H       129        0    0.0000
    780 H         155.3771   77.6211   36.9692 H       129        0    0.0000
    781 C         156.9405   78.4710   38.2354 C.3     130        0    0.0000
    782 C         157.6199   78.8269   36.9085 C.3     130        0    0.0000
    783 H         156.6608   79.3860   38.7721 H       130        0    0.0000
    784 H         157.6402   77.9276   38.8824 H       130        0    0.0000
    785 H         158.2946   78.0178   36.6024 H       130        0    0.0000
    786 H         156.8681   78.9270   36.1159 H       130        0    0.0000
    787 C         158.4390   80.1605   36.9994 C.3     131        0    0.0000
    788 C         159.9509   79.9122   37.0369 C.3     131        0    0.0000
    789 H         158.1827   80.7921   36.1398 H       131        0    0.0000
    790 H         158.1252   80.7076   37.8970 H       131        0    0.0000
    791 H         160.1575   78.9074   37.4259 H       131        0    0.0000
    792 H         160.3632   79.9476   36.0209 H       131        0    0.0000
    793 C         160.7036   80.9624   37.9245 C.3     132        0    0.0000
    794 C         161.9909   81.4662   37.2627 C.3     132        0    0.0000
    795 H         160.0293   81.8042   38.1248 H       132        0    0.0000
    796 H         160.9336   80.5052   38.8949 H       132        0    0.0000
    797 H         162.7396   80.6647   37.2376 H       132        0    0.0000
    798 H         161.7935   81.7455   36.2203 H       132        0    0.0000
    799 C         162.5990   82.7025   38.0106 C.3     133        0    0.0000
    800 C         163.9866   83.0781   37.4791 C.3     133        0    0.0000
    801 H         161.9131   83.5521   37.9049 H       133        0    0.0000
    802 H         162.6556   82.4747   39.0822 H       133        0    0.0000
    803 H         164.6276   82.1886   37.4393 H       133        0    0.0000
    804 H         163.9067   83.4549   36.4519 H       133        0    0.0000
    805 C         164.6870   84.1665   38.3636 C.3     134        0    0.0000
    806 C         166.1429   84.4040   37.9478 C.3     134        0    0.0000
    807 H         164.1176   85.1014   38.2907 H       134        0    0.0000
    808 H         164.6422   83.8514   39.4135 H       134        0    0.0000
    809 H         166.6885   83.4524   37.9279 H       134        0    0.0000
    810 H         166.1819   84.8108   36.9297 H       134        0    0.0000
    811 C         166.8835   85.3908   38.9150 C.3     135        0    0.0000
    812 C         168.3571   85.0170   39.1095 C.3     135        0    0.0000
    813 H         166.8035   86.4079   38.5116 H       135        0    0.0000
    814 H         166.3653   85.3937   39.8819 H       135        0    0.0000
    815 H         168.4548   83.9336   39.2515 H       135        0    0.0000
    816 H         168.9313   85.2698   38.2096 H       135        0    0.0000
    817 C         168.9979   85.7476   40.3396 C.3     136        0    0.0000
    818 C         169.9043   84.8213   41.1578 C.3     136        0    0.0000
    819 H         169.5701   86.6114   39.9790 H       136        0    0.0000
    820 H         168.1949   86.1439   40.9732 H       136        0    0.0000
    821 H         169.4972   83.8026   41.1600 H       136        0    0.0000
    822 H         170.8975   84.7626   40.6957 H       136        0    0.0000
    823 C         170.0645   85.3047   42.6404 C.3     137        0    0.0000
    824 C         170.8171   84.2872   43.5050 C.3     137        0    0.0000
    825 H         170.5936   86.2657   42.6438 H       137        0    0.0000
    826 H         169.0686   85.4919   43.0608 H       137        0    0.0000
    827 H         170.2927   83.3237   43.4945 H       137        0    0.0000
    828 H         171.8162   84.1067   43.0895 H       137        0    0.0000
    829 C         170.9664   84.7651   44.9905 C.3     138        0    0.0000
    830 C         171.7912   83.7876   45.8350 C.3     138        0    0.0000
    831 H         171.4354   85.7568   44.9975 H       138        0    0.0000
    832 H         169.9664   84.8865   45.4251 H       138        0    0.0000
    833 H         171.9662   84.2077   46.8332 H       138        0    0.0000
    834 H         171.2349   82.8532   45.9796 H       138        0    0.0000
    835 C         173.1748   83.4552   45.1771 C.3     139        0    0.0000
    836 C         173.9010   82.3135   45.8970 C.3     139        0    0.0000
    837 H         173.0119   83.1928   44.1245 H       139        0    0.0000
    838 H         173.7959   84.3595   45.1839 H       139        0    0.0000
    839 H         174.5851   82.7199   46.6522 H       139        0    0.0000
    840 H         173.1777   81.6860   46.4323 H       139        0    0.0000
    841 C         174.7177   81.4120   44.9083 C.3     140        0    0.0000
    842 C         175.5095   80.3204   45.6367 C.3     140        0    0.0000
    843 H         174.0246   80.9577   44.1894 H       140        0    0.0000
    844 H         175.3989   82.0484   44.3300 H       140        0    0.0000
    845 H         174.8228   79.5785   46.0628 H       140        0    0.0000
    846 H         176.1516   79.7843   44.9269 H       140        0    0.0000
    847 C         176.4026   80.9014   46.7866 C.3     141        0    0.0000
    848 C         176.9411   79.8061   47.7136 C.3     141        0    0.0000
    849 H         177.2351   81.4593   46.3403 H       141        0    0.0000
    850 H         175.8115   81.6244   47.3623 H       141        0    0.0000
    851 H         176.1416   79.0973   47.9625 H       141        0    0.0000
    852 H         177.7234   79.2316   47.2023 H       141        0    0.0000
    853 C         177.5306   80.3902   49.0436 C.3     142        0    0.0000
    854 C         177.9889   79.2907   50.0080 C.3     142        0    0.0000
    855 H         178.3722   81.0497   48.7977 H       142        0    0.0000
    856 H         176.7686   81.0172   49.5228 H       142        0    0.0000
    857 H         177.1738   78.5767   50.1791 H       142        0    0.0000
    858 H         178.8170   78.7233   49.5654 H       142        0    0.0000
    859 C         178.4534   79.8679   51.3895 C.3     143        0    0.0000
    860 C         178.1346   78.9208   52.5515 C.3     143        0    0.0000
    861 H         179.5325   80.0614   51.3471 H       143        0    0.0000
    862 H         177.9656   80.8374   51.5497 H       143        0    0.0000
    863 H         177.1455   78.4686   52.4077 H       143        0    0.0000
    864 H         178.8577   78.0960   52.5738 H       143        0    0.0000
    865 C         178.1592   79.6520   53.9379 C.3     144        0    0.0000
    866 C         177.5870   78.7829   55.0632 C.3     144        0    0.0000
    867 H         179.1934   79.9351   54.1701 H       144        0    0.0000
    868 H         177.5881   80.5851   53.8557 H       144        0    0.0000
    869 H         176.5878   78.4226   54.7891 H       144        0    0.0000
    870 H         178.2137   77.8942   55.2078 H       144        0    0.0000
    871 C         177.4893   79.5588   56.4219 C.3     145        0    0.0000
    872 C         176.9761   78.6718   57.5616 C.3     145        0    0.0000
    873 H         178.4796   79.9584   56.6729 H       145        0    0.0000
    874 H         176.8255   80.4222   56.2891 H       145        0    0.0000
    875 H         177.0383   79.2110   58.5150 H       145        0    0.0000
    876 H         175.9173   78.4318   57.4039 H       145        0    0.0000
    877 C         177.7847   77.3344   57.6838 C.3     146        0    0.0000
    878 C         177.0972   76.3222   58.6067 C.3     146        0    0.0000
    879 H         177.9111   76.9049   56.6822 H       146        0    0.0000
    880 H         178.7905   77.5622   58.0581 H       146        0    0.0000
    881 H         177.8397   75.8368   59.2522 H       146        0    0.0000
    882 H         176.3915   76.8371   59.2704 H       146        0    0.0000
    883 C         176.3243   75.2178   57.8064 C.3     147        0    0.0000
    884 C         175.9450   74.0214   58.6861 C.3     147        0    0.0000
    885 H         175.4226   75.6640   57.3690 H       147        0    0.0000
    886 H         176.9496   74.8854   56.9686 H       147        0    0.0000
    887 H         175.3872   74.3637   59.5665 H       147        0    0.0000
    888 H         175.2797   73.3453   58.1349 H       147        0    0.0000
    889 C         177.2007   73.2148   59.1656 C.3     148        0    0.0000
    890 C         176.8170   71.9307   59.9092 C.3     148        0    0.0000
    891 H         177.8203   72.9733   58.2930 H       148        0    0.0000
    892 H         177.8076   73.8582   59.8146 H       148        0    0.0000
    893 H         176.7135   72.1341   60.9823 H       148        0    0.0000
    894 H         175.8406   71.5718   59.5610 H       148        0    0.0000
    895 C         177.8745   70.7906   59.7108 C.3     149        0    0.0000
    896 C         177.4720   69.4946   60.4231 C.3     149        0    0.0000
    897 H         177.9986   70.6065   58.6364 H       149        0    0.0000
    898 H         178.8451   71.1396   60.0848 H       149        0    0.0000
    899 H         178.3444   69.0515   60.9193 H       149        0    0.0000
    900 H         176.7379   69.7099   61.2094 H       149        0    0.0000
    901 C         176.8617   68.4397   59.4371 C.3     150        0    0.0000
    902 C         176.0910   67.3366   60.1708 C.3     150        0    0.0000
    903 H         176.1987   68.9567   58.7322 H       150        0    0.0000
    904 H         177.6725   68.0006   58.8428 H       150        0    0.0000
    905 H         176.7924   66.6195   60.6150 H       150        0    0.0000
    906 H         175.5144   67.7675   60.9987 H       150        0    0.0000
    907 C         175.1117   66.5639   59.2214 C.3     151        0    0.0000
    908 C         174.8538   65.1295   59.6959 C.3     151        0    0.0000
    909 H         174.1659   67.1167   59.1632 H       151        0    0.0000
    910 H         175.5343   66.5549   58.2090 H       151        0    0.0000
    911 H         175.7875   64.6778   60.0532 H       151        0    0.0000
    912 H         174.1603   65.1335   60.5460 H       151        0    0.0000
    913 C         174.2574   64.2267   58.5616 C.3     152        0    0.0000
    914 C         174.8665   62.8203   58.5581 C.3     152        0    0.0000
    915 H         173.1700   64.1654   58.6934 H       152        0    0.0000
    916 H         174.4305   64.7140   57.5941 H       152        0    0.0000
    917 H         175.9265   62.8687   58.8367 H       152        0    0.0000
    918 H         174.3713   62.1940   59.3104 H       152        0    0.0000
    919 C         174.7430   62.1229   57.1595 C.3     153        0    0.0000
    920 C         175.2637   60.6816   57.1812 C.3     153        0    0.0000
    921 H         173.6911   62.1382   56.8484 H       153        0    0.0000
    922 H         175.2988   62.7126   56.4200 H       153        0    0.0000
    923 H         175.8511   60.4802   56.2768 H       153        0    0.0000
    924 H         175.9390   60.5383   58.0338 H       153        0    0.0000
    925 C         174.1031   59.6319   57.2740 C.3     154        0    0.0000
    926 C         174.6244   58.1910   57.3086 C.3     154        0    0.0000
    927 H         173.5101   59.8391   58.1734 H       154        0    0.0000
    928 H         173.4330   59.7689   56.4163 H       154        0    0.0000
    929 H         175.1646   57.9641   56.3811 H       154        0    0.0000
    930 H         175.3427   58.0705   58.1290 H       154        0    0.0000
    931 C         173.4702   57.1458   57.4898 C.3     155        0    0.0000
    932 C         173.9864   55.7027   57.4790 C.3     155        0    0.0000
    933 H         172.9509   57.3526   58.4337 H       155        0    0.0000
    934 H         172.7351   57.2883   56.6880 H       155        0    0.0000
    935 H         174.5398   55.5081   56.5520 H       155        0    0.0000
    936 H         174.6919   55.5494   58.3051 H       155        0    0.0000
    937 C         172.8264   54.6558   57.6044 C.3     156        0    0.0000
    938 C         173.2164   53.2861   57.0380 C.3     156        0    0.0000
    939 H         172.5487   54.5606   58.6614 H       156        0    0.0000
    940 H         171.9434   55.0421   57.0803 H       156        0    0.0000
    941 H         173.6366   53.4012   56.0312 H       156        0    0.0000
    942 H         174.0006   52.8327   57.6568 H       156        0    0.0000
    943 C         171.9971   52.3034   56.9674 C.3     157        0    0.0000
    944 C         172.3939   50.8606   57.2992 C.3     157        0    0.0000
    945 H         171.2228   52.6500   57.6630 H       157        0    0.0000
    946 H         171.5616   52.3519   55.9617 H       157        0    0.0000
    947 H         173.0135   50.4463   56.4943 H       157        0    0.0000
    948 H         173.0048   50.8386   58.2102 H       157        0    0.0000
    949 C         171.1465   49.9337   57.5048 C.3     158        0    0.0000
    950 C         171.5389   48.4629   57.6832 C.3     158        0    0.0000
    951 H         170.5871   50.2828   58.3816 H       158        0    0.0000
    952 H         170.4788   50.0428   56.6412 H       158        0    0.0000
    953 H         172.1211   48.1213   56.8184 H       158        0    0.0000
    954 H         172.1851   48.3500   58.5625 H       158        0    0.0000
    955 C         170.2896   47.5309   57.8513 C.3     159        0    0.0000
    956 C         170.6768   46.0505   57.9378 C.3     159        0    0.0000
    957 H         169.7440   47.8304   58.7547 H       159        0    0.0000
    958 H         169.6109   47.6934   57.0049 H       159        0    0.0000
    959 H         171.7307   45.9536   58.2270 H       159        0    0.0000
    960 H         170.0888   45.5529   58.7188 H       159        0    0.0000
    961 C         170.4540   45.2979   56.5808 C.3     160        0    0.0000
    962 C         170.6132   43.7804   56.7253 C.3     160        0    0.0000
    963 H         169.4516   45.5368   56.2044 H       160        0    0.0000
    964 H         171.1679   45.6824   55.8418 H       160        0    0.0000
    965 H         171.6541   43.5328   56.9677 H       160        0    0.0000
    966 H         170.0002   43.4155   57.5587 H       160        0    0.0000
    967 C         170.2018   43.0131   55.4217 C.3     161        0    0.0000
    968 C         169.9041   41.5334   55.6881 C.3     161        0    0.0000
    969 H         169.3210   43.5016   54.9869 H       161        0    0.0000
    970 H         171.0099   43.1076   54.6858 H       161        0    0.0000
    971 H         170.8173   41.0181   56.0106 H       161        0    0.0000
    972 H         169.1816   41.4367   56.5079 H       161        0    0.0000
    973 C         169.3330   40.8051   54.4228 C.3     162        0    0.0000
    974 C         170.1252   39.5403   54.0736 C.3     162        0    0.0000
    975 H         168.2813   40.5518   54.6052 H       162        0    0.0000
    976 H         169.3468   41.5032   53.5767 H       162        0    0.0000
    977 H         171.1564   39.6300   54.4371 H       162        0    0.0000
    978 H         169.6875   38.6707   54.5792 H       162        0    0.0000
    979 C         170.1555   39.2654   52.5306 C.3     163        0    0.0000
    980 C         169.0608   38.2857   52.0936 C.3     163        0    0.0000
    981 H         170.0413   40.2184   51.9993 H       163        0    0.0000
    982 H         171.1429   38.8707   52.2610 H       163        0    0.0000
    983 H         169.4714   37.2711   52.0203 H       163        0    0.0000
    984 H         168.2650   38.2499   52.8480 H       163        0    0.0000
    985 C         168.4304   38.6767   50.7125 C.3     164        0    0.0000
    986 C         167.0920   37.9722   50.4646 C.3     164        0    0.0000
    987 H         168.2942   39.7648   50.6813 H       164        0    0.0000
    988 H         169.1412   38.4252   49.9156 H       164        0    0.0000
    989 H         167.2280   36.8841   50.4973 H       164        0    0.0000
    990 H         166.3808   38.2249   51.2608 H       164        0    0.0000
    991 C         166.4628   38.3615   49.0826 C.3     165        0    0.0000
    992 C         166.0089   37.1342   48.2847 C.3     165        0    0.0000
    993 H         165.6122   39.0319   49.2577 H       165        0    0.0000
    994 H         167.2009   38.9329   48.5064 H       165        0    0.0000
    995 H         166.5445   36.2414   48.6307 H       165        0    0.0000
    996 H         164.9416   36.9475   48.4563 H       165        0    0.0000
    997 C         166.2511   37.3037   46.7452 C.3     166        0    0.0000
    998 C         164.9660   37.6632   45.9912 C.3     166        0    0.0000
    999 H         167.0085   38.0819   46.5899 H       166        0    0.0000
   1000 H         166.6716   36.3712   46.3486 H       166        0    0.0000
   1001 H         164.5185   36.7598   45.5585 H       166        0    0.0000
   1002 H         164.2261   38.0795   46.6860 H       166        0    0.0000
   1003 C         165.2209   38.7001   44.8435 C.3     167        0    0.0000
   1004 C         165.1182   38.0643   43.4528 C.3     167        0    0.0000
   1005 H         164.4953   39.5175   44.9379 H       167        0    0.0000
   1006 H         166.2148   39.1436   44.9819 H       167        0    0.0000
   1007 H         165.3369   36.9909   43.5128 H       167        0    0.0000
   1008 H         164.0935   38.1562   43.0719 H       167        0    0.0000
   1009 C         166.1006   38.7233   42.4242 C.3     168        0    0.0000
   1010 C         165.5203   38.7566   41.0060 C.3     168        0    0.0000
   1011 H         166.3329   39.7417   42.7596 H       168        0    0.0000
   1012 H         167.0457   38.1662   42.4309 H       168        0    0.0000
   1013 H         165.4243   37.7361   40.6148 H       168        0    0.0000
   1014 H         164.5100   39.1839   41.0229 H       168        0    0.0000
   1015 C         166.4067   39.5940   40.0209 C.3     169        0    0.0000
   1016 C         166.0311   39.3539   38.5545 C.3     169        0    0.0000
   1017 H         166.3006   40.6578   40.2671 H       169        0    0.0000
   1018 H         167.4601   39.3359   40.1865 H       169        0    0.0000
   1019 H         165.9751   38.2772   38.3520 H       169        0    0.0000
   1020 H         165.0351   39.7654   38.3491 H       169        0    0.0000
   1021 C         167.0594   40.0015   37.5641 C.3     170        0    0.0000
   1022 C         166.8071   39.5855   36.1107 C.3     170        0    0.0000
   1023 H         167.0019   41.0930   37.6584 H       170        0    0.0000
   1024 H         168.0731   39.7120   37.8677 H       170        0    0.0000
   1025 H         165.8407   39.9772   35.7697 H       170        0    0.0000
   1026 H         167.5723   40.0214   35.4565 H       170        0    0.0000
   1027 C         166.8139   38.0285   35.9287 C.3     171        0    0.0000
   1028 C         166.4406   37.6088   34.5027 C.3     171        0    0.0000
   1029 H         167.8102   37.6470   36.1845 H       171        0    0.0000
   1030 H         166.1129   37.5854   36.6469 H       171        0    0.0000
   1031 H         165.7055   38.3079   34.0851 H       171        0    0.0000
   1032 H         167.3237   37.6552   33.8535 H       171        0    0.0000
   1033 C         165.8476   36.1587   34.4462 C.3     172        0    0.0000
   1034 C         165.4873   35.7338   33.0184 C.3     172        0    0.0000
   1035 H         166.5785   35.4609   34.8733 H       172        0    0.0000
   1036 H         164.9584   36.1151   35.0873 H       172        0    0.0000
   1037 H         165.2119   34.6720   33.0001 H       172        0    0.0000
   1038 H         164.6102   36.2927   32.6696 H       172        0    0.0000
   1039 C         166.6676   35.9670   32.0134 C.3     173        0    0.0000
   1040 C         166.1734   36.2043   30.5821 C.3     173        0    0.0000
   1041 H         167.2581   36.8262   32.3548 H       173        0    0.0000
   1042 H         167.3336   35.0957   32.0418 H       173        0    0.0000
   1043 H         166.8020   35.6540   29.8711 H       173        0    0.0000
   1044 H         165.1537   35.8163   30.4670 H       173        0    0.0000
   1045 C         166.1829   37.7232   30.1945 C.3     174        0    0.0000
   1046 C         166.3321   37.9363   28.6841 C.3     174        0    0.0000
   1047 H         165.2529   38.1845   30.5494 H       174        0    0.0000
   1048 H         167.0038   38.2190   30.7273 H       174        0    0.0000
   1049 H         166.9824   37.1626   28.2575 H       174        0    0.0000
   1050 H         165.3570   37.8349   28.1917 H       174        0    0.0000
   1051 C         166.9284   39.3444   28.3389 C.3     175        0    0.0000
   1052 C         167.0690   39.5611   26.8281 C.3     175        0    0.0000
   1053 H         166.2818   40.1180   28.7713 H       175        0    0.0000
   1054 H         167.9066   39.4432   28.8257 H       175        0    0.0000
   1055 H         167.8044   38.8599   26.4144 H       175        0    0.0000
   1056 H         166.1160   39.3499   26.3275 H       175        0    0.0000
   1057 C         167.5115   41.0233   26.4763 C.3     176        0    0.0000
   1058 C         167.6591   41.2379   24.9660 C.3     176        0    0.0000
   1059 H         166.7733   41.7242   26.8855 H       176        0    0.0000
   1060 H         168.4619   41.2363   26.9812 H       176        0    0.0000
   1061 H         166.8248   40.7628   24.4351 H       176        0    0.0000
   1062 H         167.6125   42.3087   24.7319 H       176        0    0.0000
   1063 C         169.0061   40.6578   24.4123 C.3     177        0    0.0000
   1064 C         169.1776   40.9184   22.9117 C.3     177        0    0.0000
   1065 H         169.8390   41.1047   24.9693 H       177        0    0.0000
   1066 H         169.0357   39.5796   24.6127 H       177        0    0.0000
   1067 H         168.5621   40.2167   22.3354 H       177        0    0.0000
   1068 H         168.8236   41.9264   22.6621 H       177        0    0.0000
   1069 C         170.6694   40.7783   22.4510 C.3     178        0    0.0000
   1070 C         170.8710   39.6067   21.4837 C.3     178        0    0.0000
   1071 H         170.9824   41.7164   21.9761 H       178        0    0.0000
   1072 H         171.3024   40.6474   23.3374 H       178        0    0.0000
   1073 H         169.9137   39.3277   21.0261 H       178        0    0.0000
   1074 H         171.5365   39.9055   20.6644 H       178        0    0.0000
   1075 C         171.4775   38.3476   22.1937 C.3     179        0    0.0000
   1076 C         172.7531   37.8503   21.5047 C.3     179        0    0.0000
   1077 H         171.6891   38.5994   23.2403 H       179        0    0.0000
   1078 H         170.7227   37.5516   22.2077 H       179        0    0.0000
   1079 H         172.7440   36.7550   21.4417 H       179        0    0.0000
   1080 H         172.7944   38.2247   20.4743 H       179        0    0.0000
   1081 C         174.0507   38.3023   22.2591 C.3     180        0    0.0000
   1082 C         174.8937   37.1119   22.7294 C.3     180        0    0.0000
   1083 H         174.6423   38.9423   21.5928 H       180        0    0.0000
   1084 H         173.7630   38.9220   23.1174 H       180        0    0.0000
   1085 H         174.6331   36.2154   22.1533 H       180        0    0.0000
   1086 H         175.9572   37.3074   22.5441 H       180        0    0.0000
   1087 C         174.6941   36.8081   24.2544 C.3     181        0    0.0000
   1088 C         176.0269   36.6770   24.9998 C.3     181        0    0.0000
   1089 H         174.0919   37.6102   24.6988 H       181        0    0.0000
   1090 H         174.1128   35.8835   24.3576 H       181        0    0.0000
   1091 H         176.3474   35.6279   25.0156 H       181        0    0.0000
   1092 H         176.8091   37.2375   24.4732 H       181        0    0.0000
   1093 C         175.9365   37.2000   26.4749 C.3     182        0    0.0000
   1094 C         177.2922   37.1616   27.1888 C.3     182        0    0.0000
   1095 H         175.5464   38.2253   26.4632 H       182        0    0.0000
   1096 H         175.2059   36.5911   27.0218 H       182        0    0.0000
   1097 H         177.6697   36.1321   27.2241 H       182        0    0.0000
   1098 H         178.0297   37.7485   26.6275 H       182        0    0.0000
   1099 C         177.2094   37.7199   28.6513 C.3     183        0    0.0000
   1100 C         178.3275   38.7235   28.9541 C.3     183        0    0.0000
   1101 H         176.2301   38.1933   28.7942 H       183        0    0.0000
   1102 H         177.2583   36.8789   29.3541 H       183        0    0.0000
   1103 H         179.2071   38.1992   29.3479 H       183        0    0.0000
   1104 H         178.6456   39.2223   28.0302 H       183        0    0.0000
   1105 C         177.8833   39.8134   29.9896 C.3     184        0    0.0000
   1106 C         178.4230   41.2038   29.6370 C.3     184        0    0.0000
   1107 H         176.7872   39.8349   30.0319 H       184        0    0.0000
   1108 H         178.2313   39.5164   30.9867 H       184        0    0.0000
   1109 H         179.4653   41.2974   29.9663 H       184        0    0.0000
   1110 H         178.4228   41.3426   28.5487 H       184        0    0.0000
   1111 C         177.5808   42.3519   30.2929 C.3     185        0    0.0000
   1112 C         178.3517   43.0772   31.4014 C.3     185        0    0.0000
   1113 H         177.2854   43.0639   29.5124 H       185        0    0.0000
   1114 H         176.6545   41.9246   30.6966 H       185        0    0.0000
   1115 H         179.1726   42.4459   31.7637 H       185        0    0.0000
   1116 H         178.8093   43.9920   31.0047 H       185        0    0.0000
   1117 C         177.4330   43.4564   32.6136 C.3     186        0    0.0000
   1118 C         178.1161   43.2023   33.9619 C.3     186        0    0.0000
   1119 H         177.1522   44.5134   32.5275 H       186        0    0.0000
   1120 H         176.5036   42.8772   32.5477 H       186        0    0.0000
   1121 H         178.8144   42.3604   33.8771 H       186        0    0.0000
   1122 H         178.7110   44.0769   34.2530 H       186        0    0.0000
   1123 C         177.0850   42.8908   35.1009 C.3     187        0    0.0000
   1124 C         177.7577   42.7505   36.4709 C.3     187        0    0.0000
   1125 H         176.3368   43.6926   35.1296 H       187        0    0.0000
   1126 H         176.5481   41.9678   34.8491 H       187        0    0.0000
   1127 H         177.9921   41.6972   36.6687 H       187        0    0.0000
   1128 H         178.7115   43.2924   36.4789 H       187        0    0.0000
   1129 C         176.8575   43.2947   37.6332 C.3     188        0    0.0000
   1130 C         177.5697   43.2490   38.9896 C.3     188        0    0.0000
   1131 H         176.5612   44.3246   37.3985 H       188        0    0.0000
   1132 H         175.9348   42.7026   37.6728 H       188        0    0.0000
   1133 H         177.7048   42.2081   39.3087 H       188        0    0.0000
   1134 H         178.5729   43.6845   38.9025 H       188        0    0.0000
   1135 C         176.7790   44.0201   40.1021 C.3     189        0    0.0000
   1136 C         177.6425   44.3072   41.3353 C.3     189        0    0.0000
   1137 H         176.4010   44.9597   39.6805 H       189        0    0.0000
   1138 H         175.9012   43.4272   40.3874 H       189        0    0.0000
   1139 H         177.9230   43.3667   41.8254 H       189        0    0.0000
   1140 H         178.5772   44.7966   41.0345 H       189        0    0.0000
   1141 C         176.9069   45.2196   42.3764 C.3     190        0    0.0000
   1142 C         177.8104   46.3363   42.9108 C.3     190        0    0.0000
   1143 H         176.0166   45.6507   41.9019 H       190        0    0.0000
   1144 H         176.5509   44.5948   43.2049 H       190        0    0.0000
   1145 H         178.4233   45.9602   43.7393 H       190        0    0.0000
   1146 H         178.5056   46.6646   42.1283 H       190        0    0.0000
   1147 C         176.9907   47.5756   43.4108 C.3     191        0    0.0000
   1148 C         177.1554   47.8119   44.9161 C.3     191        0    0.0000
   1149 H         177.3154   48.4627   42.8530 H       191        0    0.0000
   1150 H         175.9321   47.4207   43.1679 H       191        0    0.0000
   1151 H         177.2162   46.8517   45.4433 H       191        0    0.0000
   1152 H         178.0967   48.3398   45.1133 H       191        0    0.0000
   1153 C         175.9728   48.6455   45.5195 C.3     192        0    0.0000
   1154 C         176.4654   49.8374   46.3476 C.3     192        0    0.0000
   1155 H         175.3328   48.9956   44.7001 H       192        0    0.0000
   1156 H         175.3556   47.9850   46.1411 H       192        0    0.0000
   1157 H         176.8705   49.4882   47.3054 H       192        0    0.0000
   1158 H         177.2856   50.3451   45.8250 H       192        0    0.0000
   1159 C         175.3259   50.8764   46.6295 C.3     193        0    0.0000
   1160 C         175.2938   51.3195   48.0964 C.3     193        0    0.0000
   1161 H         175.4711   51.7462   45.9769 H       193        0    0.0000
   1162 H         174.3634   50.4302   46.3502 H       193        0    0.0000
   1163 H         175.4042   50.4490   48.7548 H       193        0    0.0000
   1164 H         176.1413   51.9835   48.3074 H       193        0    0.0000
   1165 C         173.9643   52.0650   48.4629 C.3     194        0    0.0000
   1166 C         174.1826   53.1593   49.5135 C.3     194        0    0.0000
   1167 H         173.5394   52.4997   47.5496 H       194        0    0.0000
   1168 H         173.2369   51.3305   48.8302 H       194        0    0.0000
   1169 H         174.3979   52.7064   50.4892 H       194        0    0.0000
   1170 H         175.0570   53.7664   49.2482 H       194        0    0.0000
   1171 C         172.9380   54.1014   49.6574 C.3     195        0    0.0000
   1172 C         173.3364   55.5773   49.7681 C.3     195        0    0.0000
   1173 H         172.2804   53.9532   48.7919 H       195        0    0.0000
   1174 H         172.3659   53.7988   50.5432 H       195        0    0.0000
   1175 H         173.5969   55.8197   50.8058 H       195        0    0.0000
   1176 H         174.2320   55.7714   49.1649 H       195        0    0.0000
   1177 C         172.1915   56.5387   49.2967 C.3     196        0    0.0000
   1178 C         172.7346   57.7890   48.5961 C.3     196        0    0.0000
   1179 H         171.5240   55.9892   48.6214 H       196        0    0.0000
   1180 H         171.5905   56.8269   50.1680 H       196        0    0.0000
   1181 H         173.2430   58.4359   49.3217 H       196        0    0.0000
   1182 H         173.4846   57.5049   47.8476 H       196        0    0.0000
   1183 C         171.6033   58.6131   47.8902 C.3     197        0    0.0000
   1184 C         172.1384   59.8908   47.2342 C.3     197        0    0.0000
   1185 H         171.1201   57.9778   47.1375 H       197        0    0.0000
   1186 H         170.8341   58.8644   48.6310 H       197        0    0.0000
   1187 H         172.6306   60.5213   47.9850 H       197        0    0.0000
   1188 H         172.9003   59.6388   46.4861 H       197        0    0.0000
   1189 C         171.0048   60.7222   46.5407 C.3     198        0    0.0000
   1190 C         171.5597   61.9026   45.7358 C.3     198        0    0.0000
   1191 H         170.4292   60.0572   45.8850 H       198        0    0.0000
   1192 H         170.3110   61.0843   47.3095 H       198        0    0.0000
   1193 H         172.1223   62.5757   46.3945 H       198        0    0.0000
   1194 H         172.2652   61.5419   44.9770 H       198        0    0.0000
   1195 C         170.4276   62.7212   45.0246 C.3     199        0    0.0000
   1196 C         170.6745   64.2324   45.0908 C.3     199        0    0.0000
   1197 H         170.3602   62.3966   43.9788 H       199        0    0.0000
   1198 H         169.4664   62.4762   45.4932 H       199        0    0.0000
   1199 H         171.0935   64.5027   46.0680 H       199        0    0.0000
   1200 H         171.4166   64.5257   44.3379 H       199        0    0.0000
   1201 C         169.3635   65.0594   44.8570 C.3     200        0    0.0000
   1202 C         169.2969   66.3062   45.7458 C.3     200        0    0.0000
   1203 H         169.3112   65.3478   43.7998 H       200        0    0.0000
   1204 H         168.4984   64.4129   45.0503 H       200        0    0.0000
   1205 H         169.7799   66.1067   46.7104 H       200        0    0.0000
   1206 H         169.8516   67.1302   45.2802 H       200        0    0.0000
   1207 C         167.8230   66.7726   46.0056 C.3     201        0    0.0000
   1208 C         167.7462   67.9149   47.0246 C.3     201        0    0.0000
   1209 H         167.3787   67.0876   45.0533 H       201        0    0.0000
   1210 H         167.2374   65.9143   46.3578 H       201        0    0.0000
   1211 H         167.0666   68.6965   46.6630 H       201        0    0.0000
   1212 H         167.3292   67.5477   47.9705 H       201        0    0.0000
   1213 C         169.1490   68.5555   47.3057 C.3     202        0    0.0000
   1214 C         169.0424   69.8618   48.1002 C.3     202        0    0.0000
   1215 H         169.7652   67.8315   47.8532 H       202        0    0.0000
   1216 H         169.6528   68.7376   46.3483 H       202        0    0.0000
   1217 H         168.0316   70.2777   48.0064 H       202        0    0.0000
   1218 H         169.2052   69.6672   49.1675 H       202        0    0.0000
   1219 C         170.0775   70.9362   47.6188 C.3     203        0    0.0000
   1220 C         169.9019   72.2765   48.3411 C.3     203        0    0.0000
   1221 H         171.0909   70.5498   47.7840 H       203        0    0.0000
   1222 H         169.9657   71.0748   46.5363 H       203        0    0.0000
   1223 H         168.8507   72.5884   48.3050 H       203        0    0.0000
   1224 H         170.1624   72.1694   49.4014 H       203        0    0.0000
   1225 C         170.7868   73.4091   47.7153 C.3     204        0    0.0000
   1226 C         170.4197   74.7968   48.2526 C.3     204        0    0.0000
   1227 H         171.8412   73.1910   47.9259 H       204        0    0.0000
   1228 H         170.6720   73.3855   46.6245 H       204        0    0.0000
   1229 H         169.3291   74.9018   48.3092 H       204        0    0.0000
   1230 H         170.8013   74.9177   49.2740 H       204        0    0.0000
   1231 C         170.9927   75.9504   47.3591 C.3     205        0    0.0000
   1232 C         170.4361   77.3225   47.7547 C.3     205        0    0.0000
   1233 H         172.0868   75.9505   47.4406 H       205        0    0.0000
   1234 H         170.7550   75.7363   46.3097 H       205        0    0.0000
   1235 H         169.4305   77.2124   48.1791 H       205        0    0.0000
   1236 H         171.0610   77.7706   48.5373 H       205        0    0.0000
   1237 C         170.3659   78.3084   46.5379 C.3     206        0    0.0000
   1238 C         169.4217   79.4871   46.7992 C.3     206        0    0.0000
   1239 H         171.3766   78.6767   46.3224 H       206        0    0.0000
   1240 H         170.0373   77.7526   45.6510 H       206        0    0.0000
   1241 H         168.3958   79.1238   46.9375 H       206        0    0.0000
   1242 H         169.7037   79.9961   47.7292 H       206        0    0.0000
   1243 C         169.4350   80.5297   45.6286 C.3     207        0    0.0000
   1244 C         168.0580   81.1619   45.3981 C.3     207        0    0.0000
   1245 H         170.1730   81.3086   45.8571 H       207        0    0.0000
   1246 H         169.7774   80.0300   44.7139 H       207        0    0.0000
   1247 H         167.4451   80.5082   44.7652 H       207        0    0.0000
   1248 H         167.5267   81.2646   46.3524 H       207        0    0.0000
   1249 C         168.1575   82.5722   44.7209 C.3     208        0    0.0000
   1250 C         166.7789   83.1744   44.4277 C.3     208        0    0.0000
   1251 H         168.7279   83.2405   45.3778 H       208        0    0.0000
   1252 H         168.7324   82.4782   43.7912 H       208        0    0.0000
   1253 H         166.3194   82.6632   43.5726 H       208        0    0.0000
   1254 H         166.1108   83.0191   45.2838 H       208        0    0.0000
   1255 C         166.8548   84.7092   44.1177 C.3     209        0    0.0000
   1256 C         165.7147   85.4922   44.7782 C.3     209        0    0.0000
   1257 H         167.8233   85.0921   44.4625 H       209        0    0.0000
   1258 H         166.8286   84.8520   43.0303 H       209        0    0.0000
   1259 H         164.8187   85.4571   44.1461 H       209        0    0.0000
   1260 H         165.4440   85.0277   45.7345 H       209        0    0.0000
   1261 C         166.0941   86.9915   45.0342 C.3     210        0    0.0000
   1262 C         165.3560   87.5793   46.2420 C.3     210        0    0.0000
   1263 H         167.1784   87.0610   45.1857 H       210        0    0.0000
   1264 H         165.8640   87.5733   44.1331 H       210        0    0.0000
   1265 H         164.2947   87.7199   46.0024 H       210        0    0.0000
   1266 H         165.3985   86.8796   47.0858 H       210        0    0.0000
   1267 C         165.9582   88.9540   46.6948 C.3     211        0    0.0000
   1268 C         165.3657   89.4385   48.0228 C.3     211        0    0.0000
   1269 H         167.0468   88.8511   46.7839 H       211        0    0.0000
   1270 H         165.7753   89.6965   45.9082 H       211        0    0.0000
   1271 H         164.2890   89.6168   47.9115 H       211        0    0.0000
   1272 H         165.4790   88.6629   48.7904 H       211        0    0.0000
   1273 C         166.0462   90.7560   48.5314 C.3     212        0    0.0000
   1274 C         165.4865   91.2145   49.8825 C.3     212        0    0.0000
   1275 H         167.1275   90.5881   48.6095 H       212        0    0.0000
   1276 H         165.9028   91.5413   47.7788 H       212        0    0.0000
   1277 H         164.3974   91.3293   49.8192 H       212        0    0.0000
   1278 H         165.6790   90.4522   50.6476 H       212        0    0.0000
   1279 C         166.1112   92.5728   50.3542 C.3     213        0    0.0000
   1280 C         165.3715   93.1650   51.5588 C.3     213        0    0.0000
   1281 H         167.1666   92.4086   50.6044 H       213        0    0.0000
   1282 H         166.0924   93.2805   49.5162 H       213        0    0.0000
   1283 H         164.2892   93.1510   51.3798 H       213        0    0.0000
   1284 H         165.5513   92.5507   52.4498 H       213        0    0.0000
   1285 C         165.8143   94.6378   51.8626 C.3     214        0    0.0000
   1286 C         164.6235   95.5482   52.1822 C.3     214        0    0.0000
   1287 H         166.5177   94.6290   52.7045 H       214        0    0.0000
   1288 H         166.3640   95.0274   50.9969 H       214        0    0.0000
   1289 H         163.7327   95.2063   51.6409 H       214        0    0.0000
   1290 H         164.3834   95.4921   53.2512 H       214        0    0.0000
   1291 C         164.9011   97.0441   51.8046 C.3     215        0    0.0000
   1292 C         165.0394   97.9393   53.0409 C.3     215        0    0.0000
   1293 H         165.8159   97.0924   51.2009 H       215        0    0.0000
   1294 H         164.0841   97.4055   51.1679 H       215        0    0.0000
   1295 H         164.0614   98.0729   53.5198 H       215        0    0.0000
   1296 H         165.6902   97.4591   53.7822 H       215        0    0.0000
   1297 C         165.6273   99.3496   52.6905 C.3     216        0    0.0000
   1298 C         165.5072  100.3354   53.8579 C.3     216        0    0.0000
   1299 H         166.6798   99.2326   52.4037 H       216        0    0.0000
   1300 H         165.1029   99.7427   51.8107 H       216        0    0.0000
   1301 H         164.4850  100.3238   54.2563 H       216        0    0.0000
   1302 H         166.1684  100.0296   54.6781 H       216        0    0.0000
   1303 C         165.8689  101.8015   53.4370 C.3     217        0    0.0000
   1304 C         165.5447  102.8183   54.5371 C.3     217        0    0.0000
   1305 H         166.9364  101.8446   53.1877 H       217        0    0.0000
   1306 H         165.3209  102.0516   52.5202 H       217        0    0.0000
   1307 H         164.4830  102.7558   54.8060 H       217        0    0.0000
   1308 H         166.1140  102.5844   55.4452 H       217        0    0.0000
   1309 C         165.8699  104.2887   54.1015 C.3     218        0    0.0000
   1310 C         165.5733  105.3025   55.2120 C.3     218        0    0.0000
   1311 H         166.9265  104.3463   53.8120 H       218        0    0.0000
   1312 H         165.2843  104.5299   53.2057 H       218        0    0.0000
   1313 H         164.5192  105.6042   55.1742 H       218        0    0.0000
   1314 H         165.7340  104.8419   56.1946 H       218        0    0.0000
   1315 C         166.4698  106.5837   55.1018 C.3     219        0    0.0000
   1316 C         166.1412  107.6175   56.1846 C.3     219        0    0.0000
   1317 H         167.5231  106.2855   55.1738 H       219        0    0.0000
   1318 H         166.3347  107.0253   54.1067 H       219        0    0.0000
   1319 H         166.4692  107.2520   57.1656 H       219        0    0.0000
   1320 H         166.6907  108.5480   55.9953 H       219        0    0.0000
   1321 C         164.6087  107.9404   56.2521 C.3     220        0    0.0000
   1322 C         164.2691  108.9108   57.3888 C.3     220        0    0.0000
   1323 H         164.2937  108.3631   55.2900 H       220        0    0.0000
   1324 H         164.0549  107.0021   56.3805 H       220        0    0.0000
   1325 H         163.2519  109.3007   57.2593 H       220        0    0.0000
   1326 H         164.2842  108.3834   58.3507 H       220        0    0.0000
   1327 C         165.2677  110.1172   57.4583 C.3     221        0    0.0000
   1328 C         165.0534  110.9773   58.7087 C.3     221        0    0.0000
   1329 H         166.2935  109.7287   57.4402 H       221        0    0.0000
   1330 H         165.1465  110.7290   56.5557 H       221        0    0.0000
   1331 H         164.0468  110.8106   59.1119 H       221        0    0.0000
   1332 H         165.7602  110.6819   59.4940 H       221        0    0.0000
   1333 C         165.2336  112.5067   58.4158 C.3     222        0    0.0000
   1334 C         164.7312  113.3821   59.5692 C.3     222        0    0.0000
   1335 H         166.2953  112.7077   58.2259 H       222        0    0.0000
   1336 H         164.6958  112.7557   57.4927 H       222        0    0.0000
   1337 H         164.0128  112.8224   60.1809 H       222        0    0.0000
   1338 H         165.5655  113.6500   60.2292 H       222        0    0.0000
   1339 C         164.0459  114.6975   59.0617 C.3     223        0    0.0000
   1340 C         162.7337  114.9901   59.7977 C.3     223        0    0.0000
   1341 H         164.7446  115.5332   59.1919 H       223        0    0.0000
   1342 H         163.8607  114.6068   57.9842 H       223        0    0.0000
   1343 H         162.3166  114.0614   60.2065 H       223        0    0.0000
   1344 H         162.9209  115.6538   60.6509 H       223        0    0.0000
   1345 C         161.6648  115.6562   58.8643 C.3     224        0    0.0000
   1346 C         160.5544  116.3534   59.6580 C.3     224        0    0.0000
   1347 H         162.1682  116.3775   58.2086 H       224        0    0.0000
   1348 H         161.2345  114.8853   58.2131 H       224        0    0.0000
   1349 H         160.0720  115.6393   60.3369 H       224        0    0.0000
   1350 H         160.9811  117.1456   60.2856 H       224        0    0.0000
   1351 C         159.4618  116.9811   58.7254 C.3     225        0    0.0000
   1352 C         158.3269  117.6368   59.5198 C.3     225        0    0.0000
   1353 H         159.9386  117.7207   58.0703 H       225        0    0.0000
   1354 H         159.0597  116.1956   58.0735 H       225        0    0.0000
   1355 H         157.8709  116.9050   60.1981 H       225        0    0.0000
   1356 H         158.7247  118.4434   60.1480 H       225        0    0.0000
   1357 C         157.2121  118.2251   58.5879 C.3     226        0    0.0000
   1358 C         156.1142  118.9451   59.3786 C.3     226        0    0.0000
   1359 H         157.6766  118.9167   57.8741 H       226        0    0.0000
   1360 H         156.7771  117.4088   57.9980 H       226        0    0.0000
   1361 H         155.6133  118.2403   60.0539 H       226        0    0.0000
   1362 H         156.5558  119.7262   60.0097 H       226        0    0.0000
   1363 C         155.0397  119.5989   58.4430 C.3     227        0    0.0000
   1364 C         154.4812  120.9032   59.0226 C.3     227        0    0.0000
   1365 H         155.4927  119.7868   57.4617 H       227        0    0.0000
   1366 H         154.2266  118.8802   58.2821 H       227        0    0.0000
   1367 H         153.8347  120.6865   59.8820 H       227        0    0.0000
   1368 H         155.3005  121.5306   59.3949 H       227        0    0.0000
   1369 C         153.6600  121.7193   57.9657 C.3     228        0    0.0000
   1370 C         153.2325  123.0921   58.4964 C.3     228        0    0.0000
   1371 H         154.2684  121.8386   57.0606 H       228        0    0.0000
   1372 H         152.7769  121.1360   57.6769 H       228        0    0.0000
   1373 H         152.5393  122.9709   59.3380 H       228        0    0.0000
   1374 H         154.1046  123.6345   58.8821 H       228        0    0.0000
   1375 C         152.5409  123.9662   57.3940 C.3     229        0    0.0000
   1376 C         152.1806  125.3659   57.9039 C.3     229        0    0.0000
   1377 H         153.2125  124.0420   56.5299 H       229        0    0.0000
   1378 H         151.6382  123.4483   57.0469 H       229        0    0.0000
   1379 H         151.1298  125.3928   58.2180 H       229        0    0.0000
   1380 H         152.7804  125.6096   58.7895 H       229        0    0.0000
   1381 C         152.4115  126.4718   56.8171 C.3     230        0    0.0000
   1382 C         152.1223  127.8794   57.3502 C.3     230        0    0.0000
   1383 H         153.4482  126.4091   56.4636 H       230        0    0.0000
   1384 H         151.7705  126.2577   55.9530 H       230        0    0.0000
   1385 H         152.4039  128.6303   56.6017 H       230        0    0.0000
   1386 H         151.0466  128.0004   57.5286 H       230        0    0.0000
   1387 C         152.8923  128.1801   58.6822 C.3     231        0    0.0000
   1388 C         152.4760  129.5174   59.3045 C.3     231        0    0.0000
   1389 H         152.7077  127.3622   59.3897 H       231        0    0.0000
   1390 H         153.9697  128.1806   58.4754 H       231        0    0.0000
   1391 H         151.5638  129.3874   59.8999 H       231        0    0.0000
   1392 H         153.2539  129.8703   59.9929 H       231        0    0.0000
   1393 C         152.2200  130.6222   58.2223 C.3     232        0    0.0000
   1394 C         152.0759  132.0177   58.8396 C.3     232        0    0.0000
   1395 H         153.0490  130.6124   57.5039 H       232        0    0.0000
   1396 H         151.3136  130.3639   57.6608 H       232        0    0.0000
   1397 H         151.2509  132.5582   58.3592 H       232        0    0.0000
   1398 H         151.8206  131.9339   59.9032 H       232        0    0.0000
   1399 C         153.3859  132.8673   58.6997 C.3     233        0    0.0000
   1400 C         153.1642  134.3403   59.0604 C.3     233        0    0.0000
   1401 H         154.1591  132.4340   59.3461 H       233        0    0.0000
   1402 H         153.7533  132.7835   57.6694 H       233        0    0.0000
   1403 H         152.3759  134.7678   58.4284 H       233        0    0.0000
   1404 H         152.8172  134.4254   60.0977 H       233        0    0.0000
   1405 C         154.4668  135.1959   58.8916 C.3     234        0    0.0000
   1406 C         154.7597  136.0576   60.1247 C.3     234        0    0.0000
   1407 H         155.3097  134.5217   58.6949 H       234        0    0.0000
   1408 H         154.3592  135.8326   58.0047 H       234        0    0.0000
   1409 H         154.1216  136.9499   60.1203 H       234        0    0.0000
   1410 H         154.5170  135.5013   61.0386 H       234        0    0.0000
   1411 C         156.2594  136.5091   60.1914 C.3     235        0    0.0000
   1412 C         156.4032  138.0301   60.3141 C.3     235        0    0.0000
   1413 H         156.7396  136.0158   61.0456 H       235        0    0.0000
   1414 H         156.7761  136.1538   59.2912 H       235        0    0.0000
   1415 H         155.7091  138.5301   59.6272 H       235        0    0.0000
   1416 H         156.1317  138.3532   61.3267 H       235        0    0.0000
   1417 C         157.8606  138.5162   60.0023 C.3     236        0    0.0000
   1418 C         158.5061  139.2221   61.1998 C.3     236        0    0.0000
   1419 H         158.4658  137.6509   59.7047 H       236        0    0.0000
   1420 H         157.8308  139.1919   59.1386 H       236        0    0.0000
   1421 H         158.2567  140.2903   61.1860 H       236        0    0.0000
   1422 H         158.1042  138.8169   62.1368 H       236        0    0.0000
   1423 C         160.0660  139.0675   61.2105 C.3     237        0    0.0000
   1424 C         160.7457  140.0983   62.1185 C.3     237        0    0.0000
   1425 H         160.3184  138.0518   61.5396 H       237        0    0.0000
   1426 H         160.4383  139.1674   60.1834 H       237        0    0.0000
   1427 H         160.4382  141.1119   61.8329 H       237        0    0.0000
   1428 H         160.4257  139.9531   63.1578 H       237        0    0.0000
   1429 C         162.3094  140.0076   62.0539 C.3     238        0    0.0000
   1430 C         162.9852  140.8362   63.1519 C.3     238        0    0.0000
   1431 H         162.6064  138.9550   62.1404 H       238        0    0.0000
   1432 H         162.6428  140.3488   61.0660 H       238        0    0.0000
   1433 H         162.7516  141.8997   63.0181 H       238        0    0.0000
   1434 H         162.5930  140.5489   64.1353 H       238        0    0.0000
   1435 C         164.5426  140.6578   63.1572 C.3     239        0    0.0000
   1436 C         165.1593  140.9783   64.5232 C.3     239        0    0.0000
   1437 H         164.7814  139.6264   62.8694 H       239        0    0.0000
   1438 H         164.9757  141.3081   62.3871 H       239        0    0.0000
   1439 H         165.0617  142.0497   64.7380 H       239        0    0.0000
   1440 H         164.6163  140.4476   65.3150 H       239        0    0.0000
   1441 C         166.6747  140.5841   64.5982 C.3     240        0    0.0000
   1442 C         167.0275  139.8804   65.9133 C.3     240        0    0.0000
   1443 H         166.9133  139.9335   63.7477 H       240        0    0.0000
   1444 H         167.2820  141.4902   64.4818 H       240        0    0.0000
   1445 H         167.1483  140.6196   66.7148 H       240        0    0.0000
   1446 H         166.2077  139.2176   66.2169 H       240        0    0.0000
   1447 C         168.3441  139.0369   65.8012 C.3     241        0    0.0000
   1448 C         169.1576  139.0547   67.1000 C.3     241        0    0.0000
   1449 H         168.0816  138.0053   65.5358 H       241        0    0.0000
   1450 H         168.9473  139.4312   64.9740 H       241        0    0.0000
   1451 H         169.2260  140.0789   67.4870 H       241        0    0.0000
   1452 H         168.6503  138.4602   67.8698 H       241        0    0.0000
   1453 C         170.6072  138.4920   66.9007 C.3     242        0    0.0000
   1454 C         171.6613  139.3302   67.6324 C.3     242        0    0.0000
   1455 H         170.6363  137.4553   67.2584 H       242        0    0.0000
   1456 H         170.8300  138.4612   65.8270 H       242        0    0.0000
   1457 H         171.3179  140.3680   67.7262 H       242        0    0.0000
   1458 H         171.8015  138.9514   68.6524 H       242        0    0.0000
   1459 C         173.0447  139.3204   66.8951 C.3     243        0    0.0000
   1460 C         173.9346  140.4957   67.3144 C.3     243        0    0.0000
   1461 H         173.5514  138.3707   67.1067 H       243        0    0.0000
   1462 H         172.8687  139.3493   65.8126 H       243        0    0.0000
   1463 H         173.3625  141.4312   67.2817 H       243        0    0.0000
   1464 H         174.2660  140.3651   68.3520 H       243        0    0.0000
   1465 C         175.1963  140.6428   66.3957 C.3     244        0    0.0000
   1466 C         176.0324  141.8774   66.7505 C.3     244        0    0.0000
   1467 H         175.8073  139.7361   66.4861 H       244        0    0.0000
   1468 H         174.8681  140.6985   65.3504 H       244        0    0.0000
   1469 H         176.3620  141.8209   67.7953 H       244        0    0.0000
   1470 H         176.9400  141.9066   66.1349 H       244        0    0.0000
   1471 C         175.2379  143.2127   66.5428 C.3     245        0    0.0000
   1472 C         176.0394  144.4408   66.9881 C.3     245        0    0.0000
   1473 H         174.9689  143.3029   65.4830 H       245        0    0.0000
   1474 H         174.2963  143.1547   67.1029 H       245        0    0.0000
   1475 H         176.8902  144.5994   66.3138 H       245        0    0.0000
   1476 H         175.4151  145.3407   66.9246 H       245        0    0.0000
   1477 C         176.5760  144.3004   68.4543 C.3     246        0    0.0000
   1478 C         177.4082  145.5126   68.8868 C.3     246        0    0.0000
   1479 H         175.7233  144.1684   69.1318 H       246        0    0.0000
   1480 H         177.1785  143.3862   68.5243 H       246        0    0.0000
   1481 H         177.5978  145.4728   69.9666 H       246        0    0.0000
   1482 H         178.3880  145.4914   68.3939 H       246        0    0.0000
   1483 C         176.7012  146.8701   68.5477 C.3     247        0    0.0000
   1484 C         177.5859  148.0808   68.8650 C.3     247        0    0.0000
   1485 H         176.4291  146.8712   67.4850 H       247        0    0.0000
   1486 H         175.7631  146.9312   69.1132 H       247        0    0.0000
   1487 H         178.4241  148.1296   68.1590 H       247        0    0.0000
   1488 H         177.0135  149.0082   68.7392 H       247        0    0.0000
   1489 C         178.1566  148.0334   70.3243 C.3     248        0    0.0000
   1490 C         179.0118  149.2619   70.6537 C.3     248        0    0.0000
   1491 H         177.3193  147.9579   71.0292 H       248        0    0.0000
   1492 H         178.7509  147.1188   70.4421 H       248        0    0.0000
   1493 H         179.5462  149.5996   69.7571 H       248        0    0.0000
   1494 H         178.3698  150.0934   70.9697 H       248        0    0.0000
   1495 C         180.0569  148.9720   71.7857 C.3     249        0    0.0000
   1496 C         180.9079  150.2022   72.1195 C.3     249        0    0.0000
   1497 H         179.5229  148.6299   72.6808 H       249        0    0.0000
   1498 H         180.7019  148.1435   71.4677 H       249        0    0.0000
   1499 H         181.3606  150.6057   71.2053 H       249        0    0.0000
   1500 H         180.2747  150.9962   72.5344 H       249        0    0.0000
   1501 C         182.0469  149.8760   73.1459 C.3     250        0    0.0000
   1502 C         183.2909  150.7445   72.9287 C.3     250        0    0.0000
   1503 H         181.6595  150.0212   74.1620 H       250        0    0.0000
   1504 H         182.3092  148.8144   73.0575 H       250        0    0.0000
   1505 H         183.5637  150.7518   71.8661 H       250        0    0.0000
   1506 H         183.0770  151.7841   73.2062 H       250        0    0.0000
   1507 C         184.5196  150.2415   73.7623 C.3     251        0    0.0000
   1508 C         185.1425  151.3567   74.6092 C.3     251        0    0.0000
   1509 H         184.1950  149.4158   74.4075 H       251        0    0.0000
   1510 H         185.2682  149.8285   73.0747 H       251        0    0.0000
   1511 H         185.5919  152.1170   73.9584 H       251        0    0.0000
   1512 H         184.3653  151.8629   75.1950 H       251        0    0.0000
   1513 C         186.2413  150.8161   75.5880 C.3     252        0    0.0000
   1514 C         187.1720  151.9269   76.0871 C.3     252        0    0.0000
   1515 H         185.7485  150.3280   76.4379 H       252        0    0.0000
   1516 H         186.8228  150.0411   75.0734 H       252        0    0.0000
   1517 H         187.6383  152.4378   75.2356 H       252        0    0.0000
   1518 H         186.5950  152.6846   76.6316 H       252        0    0.0000
   1519 C         188.3003  151.3789   77.0273 C.3     253        0    0.0000
   1520 C         189.1037  152.5046   77.6878 C.3     253        0    0.0000
   1521 H         187.8428  150.7427   77.7950 H       253        0    0.0000
   1522 H         188.9673  150.7348   76.4409 H       253        0    0.0000
   1523 H         190.0558  152.1142   78.0679 H       253        0    0.0000
   1524 H         189.3521  153.2744   76.9467 H       253        0    0.0000
   1525 C         188.3242  153.1753   78.8711 C.3     254        0    0.0000
   1526 C         189.1131  154.3240   79.5092 C.3     254        0    0.0000
   1527 H         187.3609  153.5430   78.4966 H       254        0    0.0000
   1528 H         188.0982  152.4103   79.6243 H       254        0    0.0000
   1529 H         190.1875  154.1835   79.3375 H       254        0    0.0000
   1530 H         188.8404  155.2758   79.0366 H       254        0    0.0000
   1531 C         188.8583  154.4347   81.0520 C.3     255        0    0.0000
   1532 C         189.6686  155.5657   81.6949 C.3     255        0    0.0000
   1533 H         187.7866  154.5957   81.2227 H       255        0    0.0000
   1534 H         189.1117  153.4763   81.5219 H       255        0    0.0000
   1535 H         190.7083  155.5286   81.3466 H       255        0    0.0000
   1536 H         189.2673  156.5388   81.3857 H       255        0    0.0000
   1537 C         189.6573  155.4889   83.2606 C.3     256        0    0.0000
   1538 C         190.4763  156.6138   83.9033 C.3     256        0    0.0000
   1539 H         188.6181  155.5337   83.6093 H       256        0    0.0000
   1540 H         190.0515  154.5128   83.5696 H       256        0    0.0000
   1541 H         191.5166  156.5658   83.5586 H       256        0    0.0000
   1542 H         190.0853  157.5898   83.5902 H       256        0    0.0000
   1543 C         190.4590  156.5412   85.4692 C.3     257        0    0.0000
   1544 C         190.9401  157.8446   86.1163 C.3     257        0    0.0000
   1545 H         189.4391  156.3105   85.8012 H       257        0    0.0000
   1546 H         191.0919  155.7052   85.7914 H       257        0    0.0000
   1547 H         191.9878  158.0321   85.8505 H       257        0    0.0000
   1548 H         190.3606  158.6925   85.7306 H       257        0    0.0000
   1549 C         190.8128  157.8145   87.6785 C.3     258        0    0.0000
   1550 C         192.1220  158.2009   88.3755 C.3     258        0    0.0000
   1551 H         190.0097  158.4979   87.9810 H       258        0    0.0000
   1552 H         190.5040  156.8086   87.9888 H       258        0    0.0000
   1553 H         192.9779  157.9310   87.7446 H       258        0    0.0000
   1554 H         192.1658  159.2878   88.5178 H       258        0    0.0000
   1555 C         192.2816  157.5019   89.7696 C.3     259        0    0.0000
   1556 C         191.8551  158.4110   90.9274 C.3     259        0    0.0000
   1557 H         191.6843  156.5817   89.7742 H       259        0    0.0000
   1558 H         193.3284  157.1986   89.8953 H       259        0    0.0000
   1559 H         192.7338  158.9024   91.3632 H       259        0    0.0000
   1560 H         191.1992  159.2088   90.5573 H       259        0    0.0000
   1561 C         191.1050  157.6232   92.0562 C.3     260        0    0.0000
   1562 C         191.2196  158.3127   93.4202 C.3     260        0    0.0000
   1563 H         190.0498  157.5202   91.7742 H       260        0    0.0000
   1564 H         191.5167  156.6079   92.1122 H       260        0    0.0000
   1565 H         192.2633  158.5881   93.6161 H       260        0    0.0000
   1566 H         190.6424  159.2457   93.4198 H       260        0    0.0000
   1567 C         190.7089  157.4032   94.5904 C.3     261        0    0.0000
   1568 C         191.0385  157.9890   95.9678 C.3     261        0    0.0000
   1569 H         189.6247  157.2704   94.4878 H       261        0    0.0000
   1570 H         191.1592  156.4081   94.4873 H       261        0    0.0000
   1571 H         192.1181  158.1643   96.0534 H       261        0    0.0000
   1572 H         190.5505  158.9641   96.0884 H       261        0    0.0000
   1573 C         190.5849  157.0489   97.1373 C.3     262        0    0.0000
   1574 C         190.8812  157.6513   98.5151 C.3     262        0    0.0000
   1575 H         189.5104  156.8518   97.0361 H       262        0    0.0000
   1576 H         191.0937  156.0827   97.0319 H       262        0    0.0000
   1577 H         191.9569  157.8395   98.6199 H       262        0    0.0000
   1578 H         190.3802  158.6220   98.6169 H       262        0    0.0000
   1579 C         190.4153  156.7172   99.6846 C.3     263        0    0.0000
   1580 C         190.7159  157.3176  101.0624 C.3     263        0    0.0000
   1581 H         189.3389  156.5319   99.5818 H       263        0    0.0000
   1582 H         190.9137  155.7454   99.5809 H       263        0    0.0000
   1583 H         191.7920  157.5051  101.1644 H       263        0    0.0000
   1584 H         190.2157  158.2883  101.1671 H       263        0    0.0000
   1585 C         190.2530  156.3820  102.2320 C.3     264        0    0.0000
   1586 C         190.5490  156.9845  103.6098 C.3     264        0    0.0000
   1587 H         189.1776  156.1915  102.1279 H       264        0    0.0000
   1588 H         190.7560  155.4124  102.1294 H       264        0    0.0000
   1589 H         191.6246  157.1734  103.7145 H       264        0    0.0000
   1590 H         190.0474  157.9549  103.7116 H       264        0    0.0000
   1591 C         190.0839  156.0500  104.7793 C.3     265        0    0.0000
   1592 C         190.3828  156.6512  106.1571 C.3     265        0    0.0000
   1593 H         189.0079  155.8630  104.6759 H       265        0    0.0000
   1594 H         190.5838  155.0789  104.6761 H       265        0    0.0000
   1595 H         191.4584  156.8417  106.2591 H       265        0    0.0000
   1596 H         189.8799  157.6206  106.2617 H       265        0    0.0000
   1597 C         189.9225  155.7143  107.3266 C.3     266        0    0.0000
   1598 C         190.2151  156.3186  108.7044 C.3     266        0    0.0000
   1599 H         188.8479  155.5197  107.2217 H       266        0    0.0000
   1600 H         190.4293  154.7467  107.2249 H       266        0    0.0000
   1601 H         191.2894  156.5151  108.8085 H       266        0    0.0000
   1602 H         189.7066  157.2852  108.8069 H       266        0    0.0000
   1603 C         189.7575  155.3804  109.8740 C.3     267        0    0.0000
   1604 C         190.0500  155.9847  111.2517 C.3     267        0    0.0000
   1605 H         188.6832  155.1837  109.7699 H       267        0    0.0000
   1606 H         190.2661  154.4138  109.7716 H       267        0    0.0000
   1607 H         191.1248  156.1775  111.3575 H       267        0    0.0000
   1608 H         189.5448  156.9534  111.3526 H       267        0    0.0000
   1609 C         189.5869  155.0492  112.4213 C.3     268        0    0.0000
   1610 C         189.8860  155.6504  113.7991 C.3     268        0    0.0000
   1611 H         188.5110  154.8608  112.3186 H       268        0    0.0000
   1612 H         190.0880  154.0788  112.3174 H       268        0    0.0000
   1613 H         190.9615  155.8408  113.9009 H       268        0    0.0000
   1614 H         189.3831  156.6197  113.9037 H       268        0    0.0000
   1615 C         189.4258  154.7134  114.9686 C.3     269        0    0.0000
   1616 C         189.7220  155.3159  116.3464 C.3     269        0    0.0000
   1617 H         188.3506  154.5211  114.8654 H       269        0    0.0000
   1618 H         189.9304  153.7448  114.8652 H       269        0    0.0000
   1619 H         190.7961  155.5153  116.4467 H       269        0    0.0000
   1620 H         189.2112  156.2809  116.4527 H       269        0    0.0000
   1621 C         189.2715  154.3742  117.5159 C.3     270        0    0.0000
   1622 C         189.5659  154.9776  118.8937 C.3     270        0    0.0000
   1623 H         188.1977  154.1737  117.4148 H       270        0    0.0000
   1624 H         189.7834  153.4097  117.4104 H       270        0    0.0000
   1625 H         188.6363  155.0755  119.4679 H       270        0    0.0000
   1626 H         190.2204  154.3080  119.4655 H       270        0    0.0000
   1627 C         190.2478  156.3855  118.7923 C.3     271        0    0.0000
   1628 C         190.5372  156.9913  120.1701 C.3     271        0    0.0000
   1629 H         191.1796  156.2868  118.2216 H       271        0    0.0000
   1630 H         189.5953  157.0538  118.2170 H       271        0    0.0000
   1631 H         191.1600  157.8881  120.0635 H       271        0    0.0000
   1632 H         189.6012  157.3123  120.6440 H       271        0    0.0000
   1633 C         191.2650  155.9810  121.1224 C.3     272        0    0.0000
   1634 C         191.2431  156.4416  122.5841 C.3     272        0    0.0000
   1635 H         190.7844  154.9991  121.0302 H       272        0    0.0000
   1636 H         192.3008  155.8579  120.7823 H       272        0    0.0000
   1637 H         191.7570  155.7080  123.2174 H       272        0    0.0000
   1638 H         191.7903  157.3867  122.6889 H       272        0    0.0000
   1639 C         189.7843  156.6400  123.1226 C.3     273        0    0.0000
   1640 C         189.5462  155.8976  124.4421 C.3     273        0    0.0000
   1641 H         189.5996  157.7132  123.2561 H       273        0    0.0000
   1642 H         189.0757  156.2908  122.3613 H       273        0    0.0000
   1643 H         189.7309  154.8245  124.3085 H       273        0    0.0000
   1644 H         190.2547  156.2469  125.2034 H       273        0    0.0000
   1645 H         188.5318  156.0356  124.8165 H       273        0    0.0000
   1646 H          -0.7202   35.8687  121.7450 H         0        0    0.0000
@<TRIPOS>BOND
     1     1     2      1
     2     1     3      1
     3     1     4      1
     4     1  1646      H
     5     2     5      1
     6     2     6      1
     7     2     7      1
     8     7     8      1
     9     7     9      1
    10     7    10      1
    11     8    11      1
    12     8    12      1
    13     8    13      1
    14    13    14      1
    15    13    15      1
    16    13    16      1
    17    14    17      1
    18    14    18      1
    19    14    19      1
    20    19    20      1
    21    19    21      1
    22    19    22      1
    23    20    23      1
    24    20    24      1
    25    20    25      1
    26    25    26      1
    27    25    27      1
    28    25    28      1
    29    26    29      1
    30    26    30      1
    31    26    31      1
    32    31    32      1
    33    31    33      1
    34    31    34      1
    35    32    35      1
    36    32    36      1
    37    32    37      1
    38    37    38      1
    39    37    39      1
    40    37    40      1
    41    38    41      1
    42    38    42      1
    43    38    43      1
    44    43    44      1
    45    43    45      1
    46    43    46      1
    47    44    47      1
    48    44    48      1
    49    44    49      1
    50    49    50      1
    51    49    51      1
    52    49    52      1
    53    50    53      1
    54    50    54      1
    55    50    55      1
    56    55    56      1
    57    55    57      1
    58    55    58      1
    59    56    59      1
    60    56    60      1
    61    56    61      1
    62    61    62      1
    63    61    63      1
    64    61    64      1
    65    62    65      1
    66    62    66      1
    67    62    67      1
    68    67    68      1
    69    67    69      1
    70    67    70      1
    71    68    71      1
    72    68    72      1
    73    68    73      1
    74    73    74      1
    75    73    75      1
    76    73    76      1
    77    74    77      1
    78    74    78      1
    79    74    79      1
    80    79    80      1
    81    79    81      1
    82    79    82      1
    83    80    83      1
    84    80    84      1
    85    80    85      1
    86    85    86      1
    87    85    87      1
    88    85    88      1
    89    86    89      1
    90    86    90      1
    91    86    91      1
    92    91    92      1
    93    91    93      1
    94    91    94      1
    95    92    95      1
    96    92    96      1
    97    92    97      1
    98    97    98      1
    99    97    99      1
   100    97   100      1
   101    98   101      1
   102    98   102      1
   103    98   103      1
   104   103   104      1
   105   103   105      1
   106   103   106      1
   107   104   107      1
   108   104   108      1
   109   104   109      1
   110   109   110      1
   111   109   111      1
   112   109   112      1
   113   110   113      1
   114   110   114      1
   115   110   115      1
   116   115   116      1
   117   115   117      1
   118   115   118      1
   119   116   119      1
   120   116   120      1
   121   116   121      1
   122   121   122      1
   123   121   123      1
   124   121   124      1
   125   122   125      1
   126   122   126      1
   127   122   127      1
   128   127   128      1
   129   127   129      1
   130   127   130      1
   131   128   131      1
   132   128   132      1
   133   128   133      1
   134   133   134      1
   135   133   135      1
   136   133   136      1
   137   134   137      1
   138   134   138      1
   139   134   139      1
   140   139   140      1
   141   139   141      1
   142   139   142      1
   143   140   143      1
   144   140   144      1
   145   140   145      1
   146   145   146      1
   147   145   147      1
   148   145   148      1
   149   146   149      1
   150   146   150      1
   151   146   151      1
   152   151   152      1
   153   151   153      1
   154   151   154      1
   155   152   155      1
   156   152   156      1
   157   152   157      1
   158   157   158      1
   159   157   159      1
   160   157   160      1
   161   158   161      1
   162   158   162      1
   163   158   163      1
   164   163   164      1
   165   163   165      1
   166   163   166      1
   167   164   167      1
   168   164   168      1
   169   164   169      1
   170   169   170      1
   171   169   171      1
   172   169   172      1
   173   170   173      1
   174   170   174      1
   175   170   175      1
   176   175   176      1
   177   175   177      1
   178   175   178      1
   179   176   179      1
   180   176   180      1
   181   176   181      1
   182   181   182      1
   183   181   183      1
   184   181   184      1
   185   182   185      1
   186   182   186      1
   187   182   187      1
   188   187   188      1
   189   187   189      1
   190   187   190      1
   191   188   191      1
   192   188   192      1
   193   188   193      1
   194   193   194      1
   195   193   195      1
   196   193   196      1
   197   194   197      1
   198   194   198      1
   199   194   199      1
   200   199   200      1
   201   199   201      1
   202   199   202      1
   203   200   203      1
   204   200   204      1
   205   200   205      1
   206   205   206      1
   207   205   207      1
   208   205   208      1
   209   206   209      1
   210   206   210      1
   211   206   211      1
   212   211   212      1
   213   211   213      1
   214   211   214      1
   215   212   215      1
   216   212   216      1
   217   212   217      1
   218   217   218      1
   219   217   219      1
   220   217   220      1
   221   218   221      1
   222   218   222      1
   223   218   223      1
   224   223   224      1
   225   223   225      1
   226   223   226      1
   227   224   227      1
   228   224   228      1
   229   224   229      1
   230   229   230      1
   231   229   231      1
   232   229   232      1
   233   230   233      1
   234   230   234      1
   235   230   235      1
   236   235   236      1
   237   235   237      1
   238   235   238      1
   239   236   239      1
   240   236   240      1
   241   236   241      1
   242   241   242      1
   243   241   243      1
   244   241   244      1
   245   242   245      1
   246   242   246      1
   247   242   247      1
   248   247   248      1
   249   247   249      1
   250   247   250      1
   251   248   251      1
   252   248   252      1
   253   248   253      1
   254   253   254      1
   255   253   255      1
   256   253   256      1
   257   254   257      1
   258   254   258      1
   259   254   259      1
   260   259   260      1
   261   259   261      1
   262   259   262      1
   263   260   263      1
   264   260   264      1
   265   260   265      1
   266   265   266      1
   267   265   267      1
   268   265   268      1
   269   266   269      1
   270   266   270      1
   271   266   271      1
   272   271   272      1
   273   271   273      1
   274   271   274      1
   275   272   275      1
   276   272   276      1
   277   272   277      1
   278   277   278      1
   279   277   279      1
   280   277   280      1
   281   278   281      1
   282   278   282      1
   283   278   283      1
   284   283   284      1
   285   283   285      1
   286   283   286      1
   287   284   287      1
   288   284   288      1
   289   284   289      1
   290   289   290      1
   291   289   291      1
   292   289   292      1
   293   290   293      1
   294   290   294      1
   295   290   295      1
   296   295   296      1
   297   295   297      1
   298   295   298      1
   299   296   299      1
   300   296   300      1
   301   296   301      1
   302   301   302      1
   303   301   303      1
   304   301   304      1
   305   302   305      1
   306   302   306      1
   307   302   307      1
   308   307   308      1
   309   307   309      1
   310   307   310      1
   311   308   311      1
   312   308   312      1
   313   308   313      1
   314   313   314      1
   315   313   315      1
   316   313   316      1
   317   314   317      1
   318   314   318      1
   319   314   319      1
   320   319   320      1
   321   319   321      1
   322   319   322      1
   323   320   323      1
   324   320   324      1
   325   320   325      1
   326   325   326      1
   327   325   327      1
   328   325   328      1
   329   326   329      1
   330   326   330      1
   331   326   331      1
   332   331   332      1
   333   331   333      1
   334   331   334      1
   335   332   335      1
   336   332   336      1
   337   332   337      1
   338   337   338      1
   339   337   339      1
   340   337   340      1
   341   338   341      1
   342   338   342      1
   343   338   343      1
   344   343   344      1
   345   343   345      1
   346   343   346      1
   347   344   347      1
   348   344   348      1
   349   344   349      1
   350   349   350      1
   351   349   351      1
   352   349   352      1
   353   350   353      1
   354   350   354      1
   355   350   355      1
   356   355   356      1
   357   355   357      1
   358   355   358      1
   359   356   359      1
   360   356   360      1
   361   356   361      1
   362   361   362      1
   363   361   363      1
   364   361   364      1
   365   362   365      1
   366   362   366      1
   367   362   367      1
   368   367   368      1
   369   367   369      1
   370   367   370      1
   371   368   371      1
   372   368   372      1
   373   368   373      1
   374   373   374      1
   375   373   375      1
   376   373   376      1
   377   374   377      1
   378   374   378      1
   379   374   379      1
   380   379   380      1
   381   379   381      1
   382   379   382      1
   383   380   383      1
   384   380   384      1
   385   380   385      1
   386   385   386      1
   387   385   387      1
   388   385   388      1
   389   386   389      1
   390   386   390      1
   391   386   391      1
   392   391   392      1
   393   391   393      1
   394   391   394      1
   395   392   395      1
   396   392   396      1
   397   392   397      1
   398   397   398      1
   399   397   399      1
   400   397   400      1
   401   398   401      1
   402   398   402      1
   403   398   403      1
   404   403   404      1
   405   403   405      1
   406   403   406      1
   407   404   407      1
   408   404   408      1
   409   404   409      1
   410   409   410      1
   411   409   411      1
   412   409   412      1
   413   410   413      1
   414   410   414      1
   415   410   415      1
   416   415   416      1
   417   415   417      1
   418   415   418      1
   419   416   419      1
   420   416   420      1
   421   416   421      1
   422   421   422      1
   423   421   423      1
   424   421   424      1
   425   422   425      1
   426   422   426      1
   427   422   427      1
   428   427   428      1
   429   427   429      1
   430   427   430      1
   431   428   431      1
   432   428   432      1
   433   428   433      1
   434   433   434      1
   435   433   435      1
   436   433   436      1
   437   434   437      1
   438   434   438      1
   439   434   439      1
   440   439   440      1
   441   439   441      1
   442   439   442      1
   443   440   443      1
   444   440   444      1
   445   440   445      1
   446   445   446      1
   447   445   447      1
   448   445   448      1
   449   446   449      1
   450   446   450      1
   451   446   451      1
   452   451   452      1
   453   451   453      1
   454   451   454      1
   455   452   455      1
   456   452   456      1
   457   452   457      1
   458   457   458      1
   459   457   459      1
   460   457   460      1
   461   458   461      1
   462   458   462      1
   463   458   463      1
   464   463   464      1
   465   463   465      1
   466   463   466      1
   467   464   467      1
   468   464   468      1
   469   464   469      1
   470   469   470      1
   471   469   471      1
   472   469   472      1
   473   470   473      1
   474   470   474      1
   475   470   475      1
   476   475   476      1
   477   475   477      1
   478   475   478      1
   479   476   479      1
   480   476   480      1
   481   476   481      1
   482   481   482      1
   483   481   483      1
   484   481   484      1
   485   482   485      1
   486   482   486      1
   487   482   487      1
   488   487   488      1
   489   487   489      1
   490   487   490      1
   491   488   491      1
   492   488   492      1
   493   488   493      1
   494   493   494      1
   495   493   495      1
   496   493   496      1
   497   494   497      1
   498   494   498      1
   499   494   499      1
   500   499   500      1
   501   499   501      1
   502   499   502      1
   503   500   503      1
   504   500   504      1
   505   500   505      1
   506   505   506      1
   507   505   507      1
   508   505   508      1
   509   506   509      1
   510   506   510      1
   511   506   511      1
   512   511   512      1
   513   511   513      1
   514   511   514      1
   515   512   515      1
   516   512   516      1
   517   512   517      1
   518   517   518      1
   519   517   519      1
   520   517   520      1
   521   518   521      1
   522   518   522      1
   523   518   523      1
   524   523   524      1
   525   523   525      1
   526   523   526      1
   527   524   527      1
   528   524   528      1
   529   524   529      1
   530   529   530      1
   531   529   531      1
   532   529   532      1
   533   530   533      1
   534   530   534      1
   535   530   535      1
   536   535   536      1
   537   535   537      1
   538   535   538      1
   539   536   539      1
   540   536   540      1
   541   536   541      1
   542   541   542      1
   543   541   543      1
   544   541   544      1
   545   542   545      1
   546   542   546      1
   547   542   547      1
   548   547   548      1
   549   547   549      1
   550   547   550      1
   551   548   551      1
   552   548   552      1
   553   548   553      1
   554   553   554      1
   555   553   555      1
   556   553   556      1
   557   554   557      1
   558   554   558      1
   559   554   559      1
   560   559   560      1
   561   559   561      1
   562   559   562      1
   563   560   563      1
   564   560   564      1
   565   560   565      1
   566   565   566      1
   567   565   567      1
   568   565   568      1
   569   566   569      1
   570   566   570      1
   571   566   571      1
   572   571   572      1
   573   571   573      1
   574   571   574      1
   575   572   575      1
   576   572   576      1
   577   572   577      1
   578   577   578      1
   579   577   579      1
   580   577   580      1
   581   578   581      1
   582   578   582      1
   583   578   583      1
   584   583   584      1
   585   583   585      1
   586   583   586      1
   587   584   587      1
   588   584   588      1
   589   584   589      1
   590   589   590      1
   591   589   591      1
   592   589   592      1
   593   590   593      1
   594   590   594      1
   595   590   595      1
   596   595   596      1
   597   595   597      1
   598   595   598      1
   599   596   599      1
   600   596   600      1
   601   596   601      1
   602   601   602      1
   603   601   603      1
   604   601   604      1
   605   602   605      1
   606   602   606      1
   607   602   607      1
   608   607   608      1
   609   607   609      1
   610   607   610      1
   611   608   611      1
   612   608   612      1
   613   608   613      1
   614   613   614      1
   615   613   615      1
   616   613   616      1
   617   614   617      1
   618   614   618      1
   619   614   619      1
   620   619   620      1
   621   619   621      1
   622   619   622      1
   623   620   623      1
   624   620   624      1
   625   620   625      1
   626   625   626      1
   627   625   627      1
   628   625   628      1
   629   626   629      1
   630   626   630      1
   631   626   631      1
   632   631   632      1
   633   631   633      1
   634   631   634      1
   635   632   635      1
   636   632   636      1
   637   632   637      1
   638   637   638      1
   639   637   639      1
   640   637   640      1
   641   638   641      1
   642   638   642      1
   643   638   643      1
   644   643   644      1
   645   643   645      1
   646   643   646      1
   647   644   647      1
   648   644   648      1
   649   644   649      1
   650   649   650      1
   651   649   651      1
   652   649   652      1
   653   650   653      1
   654   650   654      1
   655   650   655      1
   656   655   656      1
   657   655   657      1
   658   655   658      1
   659   656   659      1
   660   656   660      1
   661   656   661      1
   662   661   662      1
   663   661   663      1
   664   661   664      1
   665   662   665      1
   666   662   666      1
   667   662   667      1
   668   667   668      1
   669   667   669      1
   670   667   670      1
   671   668   671      1
   672   668   672      1
   673   668   673      1
   674   673   674      1
   675   673   675      1
   676   673   676      1
   677   674   677      1
   678   674   678      1
   679   674   679      1
   680   679   680      1
   681   679   681      1
   682   679   682      1
   683   680   683      1
   684   680   684      1
   685   680   685      1
   686   685   686      1
   687   685   687      1
   688   685   688      1
   689   686   689      1
   690   686   690      1
   691   686   691      1
   692   691   692      1
   693   691   693      1
   694   691   694      1
   695   692   695      1
   696   692   696      1
   697   692   697      1
   698   697   698      1
   699   697   699      1
   700   697   700      1
   701   698   701      1
   702   698   702      1
   703   698   703      1
   704   703   704      1
   705   703   705      1
   706   703   706      1
   707   704   707      1
   708   704   708      1
   709   704   709      1
   710   709   710      1
   711   709   711      1
   712   709   712      1
   713   710   713      1
   714   710   714      1
   715   710   715      1
   716   715   716      1
   717   715   717      1
   718   715   718      1
   719   716   719      1
   720   716   720      1
   721   716   721      1
   722   721   722      1
   723   721   723      1
   724   721   724      1
   725   722   725      1
   726   722   726      1
   727   722   727      1
   728   727   728      1
   729   727   729      1
   730   727   730      1
   731   728   731      1
   732   728   732      1
   733   728   733      1
   734   733   734      1
   735   733   735      1
   736   733   736      1
   737   734   737      1
   738   734   738      1
   739   734   739      1
   740   739   740      1
   741   739   741      1
   742   739   742      1
   743   740   743      1
   744   740   744      1
   745   740   745      1
   746   745   746      1
   747   745   747      1
   748   745   748      1
   749   746   749      1
   750   746   750      1
   751   746   751      1
   752   751   752      1
   753   751   753      1
   754   751   754      1
   755   752   755      1
   756   752   756      1
   757   752   757      1
   758   757   758      1
   759   757   759      1
   760   757   760      1
   761   758   761      1
   762   758   762      1
   763   758   763      1
   764   763   764      1
   765   763   765      1
   766   763   766      1
   767   764   767      1
   768   764   768      1
   769   764   769      1
   770   769   770      1
   771   769   771      1
   772   769   772      1
   773   770   773      1
   774   770   774      1
   775   770   775      1
   776   775   776      1
   777   775   777      1
   778   775   778      1
   779   776   779      1
   780   776   780      1
   781   776   781      1
   782   781   782      1
   783   781   783      1
   784   781   784      1
   785   782   785      1
   786   782   786      1
   787   782   787      1
   788   787   788      1
   789   787   789      1
   790   787   790      1
   791   788   791      1
   792   788   792      1
   793   788   793      1
   794   793   794      1
   795   793   795      1
   796   793   796      1
   797   794   797      1
   798   794   798      1
   799   794   799      1
   800   799   800      1
   801   799   801      1
   802   799   802      1
   803   800   803      1
   804   800   804      1
   805   800   805      1
   806   805   806      1
   807   805   807      1
   808   805   808      1
   809   806   809      1
   810   806   810      1
   811   806   811      1
   812   811   812      1
   813   811   813      1
   814   811   814      1
   815   812   815      1
   816   812   816      1
   817   812   817      1
   818   817   818      1
   819   817   819      1
   820   817   820      1
   821   818   821      1
   822   818   822      1
   823   818   823      1
   824   823   824      1
   825   823   825      1
   826   823   826      1
   827   824   827      1
   828   824   828      1
   829   824   829      1
   830   829   830      1
   831   829   831      1
   832   829   832      1
   833   830   833      1
   834   830   834      1
   835   830   835      1
   836   835   836      1
   837   835   837      1
   838   835   838      1
   839   836   839      1
   840   836   840      1
   841   836   841      1
   842   841   842      1
   843   841   843      1
   844   841   844      1
   845   842   845      1
   846   842   846      1
   847   842   847      1
   848   847   848      1
   849   847   849      1
   850   847   850      1
   851   848   851      1
   852   848   852      1
   853   848   853      1
   854   853   854      1
   855   853   855      1
   856   853   856      1
   857   854   857      1
   858   854   858      1
   859   854   859      1
   860   859   860      1
   861   859   861      1
   862   859   862      1
   863   860   863      1
   864   860   864      1
   865   860   865      1
   866   865   866      1
   867   865   867      1
   868   865   868      1
   869   866   869      1
   870   866   870      1
   871   866   871      1
   872   871   872      1
   873   871   873      1
   874   871   874      1
   875   872   875      1
   876   872   876      1
   877   872   877      1
   878   877   878      1
   879   877   879      1
   880   877   880      1
   881   878   881      1
   882   878   882      1
   883   878   883      1
   884   883   884      1
   885   883   885      1
   886   883   886      1
   887   884   887      1
   888   884   888      1
   889   884   889      1
   890   889   890      1
   891   889   891      1
   892   889   892      1
   893   890   893      1
   894   890   894      1
   895   890   895      1
   896   895   896      1
   897   895   897      1
   898   895   898      1
   899   896   899      1
   900   896   900      1
   901   896   901      1
   902   901   902      1
   903   901   903      1
   904   901   904      1
   905   902   905      1
   906   902   906      1
   907   902   907      1
   908   907   908      1
   909   907   909      1
   910   907   910      1
   911   908   911      1
   912   908   912      1
   913   908   913      1
   914   913   914      1
   915   913   915      1
   916   913   916      1
   917   914   917      1
   918   914   918      1
   919   914   919      1
   920   919   920      1
   921   919   921      1
   922   919   922      1
   923   920   923      1
   924   920   924      1
   925   920   925      1
   926   925   926      1
   927   925   927      1
   928   925   928      1
   929   926   929      1
   930   926   930      1
   931   926   931      1
   932   931   932      1
   933   931   933      1
   934   931   934      1
   935   932   935      1
   936   932   936      1
   937   932   937      1
   938   937   938      1
   939   937   939      1
   940   937   940      1
   941   938   941      1
   942   938   942      1
   943   938   943      1
   944   943   944      1
   945   943   945      1
   946   943   946      1
   947   944   947      1
   948   944   948      1
   949   944   949      1
   950   949   950      1
   951   949   951      1
   952   949   952      1
   953   950   953      1
   954   950   954      1
   955   950   955      1
   956   955   956      1
   957   955   957      1
   958   955   958      1
   959   956   959      1
   960   956   960      1
   961   956   961      1
   962   961   962      1
   963   961   963      1
   964   961   964      1
   965   962   965      1
   966   962   966      1
   967   962   967      1
   968   967   968      1
   969   967   969      1
   970   967   970      1
   971   968   971      1
   972   968   972      1
   973   968   973      1
   974   973   974      1
   975   973   975      1
   976   973   976      1
   977   974   977      1
   978   974   978      1
   979   974   979      1
   980   979   980      1
   981   979   981      1
   982   979   982      1
   983   980   983      1
   984   980   984      1
   985   980   985      1
   986   985   986      1
   987   985   987      1
   988   985   988      1
   989   986   989      1
   990   986   990      1
   991   986   991      1
   992   991   992      1
   993   991   993      1
   994   991   994      1
   995   992   995      1
   996   992   996      1
   997   992   997      1
   998   997   998      1
   999   997   999      1
  1000   997  1000      1
  1001   998  1001      1
  1002   998  1002      1
  1003   998  1003      1
  1004  1003  1004      1
  1005  1003  1005      1
  1006  1003  1006      1
  1007  1004  1007      1
  1008  1004  1008      1
  1009  1004  1009      1
  1010  1009  1010      1
  1011  1009  1011      1
  1012  1009  1012      1
  1013  1010  1013      1
  1014  1010  1014      1
  1015  1010  1015      1
  1016  1015  1016      1
  1017  1015  1017      1
  1018  1015  1018      1
  1019  1016  1019      1
  1020  1016  1020      1
  1021  1016  1021      1
  1022  1021  1022      1
  1023  1021  1023      1
  1024  1021  1024      1
  1025  1022  1025      1
  1026  1022  1026      1
  1027  1022  1027      1
  1028  1027  1028      1
  1029  1027  1029      1
  1030  1027  1030      1
  1031  1028  1031      1
  1032  1028  1032      1
  1033  1028  1033      1
  1034  1033  1034      1
  1035  1033  1035      1
  1036  1033  1036      1
  1037  1034  1037      1
  1038  1034  1038      1
  1039  1034  1039      1
  1040  1039  1040      1
  1041  1039  1041      1
  1042  1039  1042      1
  1043  1040  1043      1
  1044  1040  1044      1
  1045  1040  1045      1
  1046  1045  1046      1
  1047  1045  1047      1
  1048  1045  1048      1
  1049  1046  1049      1
  1050  1046  1050      1
  1051  1046  1051      1
  1052  1051  1052      1
  1053  1051  1053      1
  1054  1051  1054      1
  1055  1052  1055      1
  1056  1052  1056      1
  1057  1052  1057      1
  1058  1057  1058      1
  1059  1057  1059      1
  1060  1057  1060      1
  1061  1058  1061      1
  1062  1058  1062      1
  1063  1058  1063      1
  1064  1063  1064      1
  1065  1063  1065      1
  1066  1063  1066      1
  1067  1064  1067      1
  1068  1064  1068      1
  1069  1064  1069      1
  1070  1069  1070      1
  1071  1069  1071      1
  1072  1069  1072      1
  1073  1070  1073      1
  1074  1070  1074      1
  1075  1070  1075      1
  1076  1075  1076      1
  1077  1075  1077      1
  1078  1075  1078      1
  1079  1076  1079      1
  1080  1076  1080      1
  1081  1076  1081      1
  1082  1081  1082      1
  1083  1081  1083      1
  1084  1081  1084      1
  1085  1082  1085      1
  1086  1082  1086      1
  1087  1082  1087      1
  1088  1087  1088      1
  1089  1087  1089      1
  1090  1087  1090      1
  1091  1088  1091      1
  1092  1088  1092      1
  1093  1088  1093      1
  1094  1093  1094      1
  1095  1093  1095      1
  1096  1093  1096      1
  1097  1094  1097      1
  1098  1094  1098      1
  1099  1094  1099      1
  1100  1099  1100      1
  1101  1099  1101      1
  1102  1099  1102      1
  1103  1100  1103      1
  1104  1100  1104      1
  1105  1100  1105      1
  1106  1105  1106      1
  1107  1105  1107      1
  1108  1105  1108      1
  1109  1106  1109      1
  1110  1106  1110      1
  1111  1106  1111      1
  1112  1111  1112      1
  1113  1111  1113      1
  1114  1111  1114      1
  1115  1112  1115      1
  1116  1112  1116      1
  1117  1112  1117      1
  1118  1117  1118      1
  1119  1117  1119      1
  1120  1117  1120      1
  1121  1118  1121      1
  1122  1118  1122      1
  1123  1118  1123      1
  1124  1123  1124      1
  1125  1123  1125      1
  1126  1123  1126      1
  1127  1124  1127      1
  1128  1124  1128      1
  1129  1124  1129      1
  1130  1129  1130      1
  1131  1129  1131      1
  1132  1129  1132      1
  1133  1130  1133      1
  1134  1130  1134      1
  1135  1130  1135      1
  1136  1135  1136      1
  1137  1135  1137      1
  1138  1135  1138      1
  1139  1136  1139      1
  1140  1136  1140      1
  1141  1136  1141      1
  1142  1141  1142      1
  1143  1141  1143      1
  1144  1141  1144      1
  1145  1142  1145      1
  1146  1142  1146      1
  1147  1142  1147      1
  1148  1147  1148      1
  1149  1147  1149      1
  1150  1147  1150      1
  1151  1148  1151      1
  1152  1148  1152      1
  1153  1148  1153      1
  1154  1153  1154      1
  1155  1153  1155      1
  1156  1153  1156      1
  1157  1154  1157      1
  1158  1154  1158      1
  1159  1154  1159      1
  1160  1159  1160      1
  1161  1159  1161      1
  1162  1159  1162      1
  1163  1160  1163      1
  1164  1160  1164      1
  1165  1160  1165      1
  1166  1165  1166      1
  1167  1165  1167      1
  1168  1165  1168      1
  1169  1166  1169      1
  1170  1166  1170      1
  1171  1166  1171      1
  1172  1171  1172      1
  1173  1171  1173      1
  1174  1171  1174      1
  1175  1172  1175      1
  1176  1172  1176      1
  1177  1172  1177      1
  1178  1177  1178      1
  1179  1177  1179      1
  1180  1177  1180      1
  1181  1178  1181      1
  1182  1178  1182      1
  1183  1178  1183      1
  1184  1183  1184      1
  1185  1183  1185      1
  1186  1183  1186      1
  1187  1184  1187      1
  1188  1184  1188      1
  1189  1184  1189      1
  1190  1189  1190      1
  1191  1189  1191      1
  1192  1189  1192      1
  1193  1190  1193      1
  1194  1190  1194      1
  1195  1190  1195      1
  1196  1195  1196      1
  1197  1195  1197      1
  1198  1195  1198      1
  1199  1196  1199      1
  1200  1196  1200      1
  1201  1196  1201      1
  1202  1201  1202      1
  1203  1201  1203      1
  1204  1201  1204      1
  1205  1202  1205      1
  1206  1202  1206      1
  1207  1202  1207      1
  1208  1207  1208      1
  1209  1207  1209      1
  1210  1207  1210      1
  1211  1208  1211      1
  1212  1208  1212      1
  1213  1208  1213      1
  1214  1213  1214      1
  1215  1213  1215      1
  1216  1213  1216      1
  1217  1214  1217      1
  1218  1214  1218      1
  1219  1214  1219      1
  1220  1219  1220      1
  1221  1219  1221      1
  1222  1219  1222      1
  1223  1220  1223      1
  1224  1220  1224      1
  1225  1220  1225      1
  1226  1225  1226      1
  1227  1225  1227      1
  1228  1225  1228      1
  1229  1226  1229      1
  1230  1226  1230      1
  1231  1226  1231      1
  1232  1231  1232      1
  1233  1231  1233      1
  1234  1231  1234      1
  1235  1232  1235      1
  1236  1232  1236      1
  1237  1232  1237      1
  1238  1237  1238      1
  1239  1237  1239      1
  1240  1237  1240      1
  1241  1238  1241      1
  1242  1238  1242      1
  1243  1238  1243      1
  1244  1243  1244      1
  1245  1243  1245      1
  1246  1243  1246      1
  1247  1244  1247      1
  1248  1244  1248      1
  1249  1244  1249      1
  1250  1249  1250      1
  1251  1249  1251      1
  1252  1249  1252      1
  1253  1250  1253      1
  1254  1250  1254      1
  1255  1250  1255      1
  1256  1255  1256      1
  1257  1255  1257      1
  1258  1255  1258      1
  1259  1256  1259      1
  1260  1256  1260      1
  1261  1256  1261      1
  1262  1261  1262      1
  1263  1261  1263      1
  1264  1261  1264      1
  1265  1262  1265      1
  1266  1262  1266      1
  1267  1262  1267      1
  1268  1267  1268      1
  1269  1267  1269      1
  1270  1267  1270      1
  1271  1268  1271      1
  1272  1268  1272      1
  1273  1268  1273      1
  1274  1273  1274      1
  1275  1273  1275      1
  1276  1273  1276      1
  1277  1274  1277      1
  1278  1274  1278      1
  1279  1274  1279      1
  1280  1279  1280      1
  1281  1279  1281      1
  1282  1279  1282      1
  1283  1280  1283      1
  1284  1280  1284      1
  1285  1280  1285      1
  1286  1285  1286      1
  1287  1285  1287      1
  1288  1285  1288      1
  1289  1286  1289      1
  1290  1286  1290      1
  1291  1286  1291      1
  1292  1291  1292      1
  1293  1291  1293      1
  1294  1291  1294      1
  1295  1292  1295      1
  1296  1292  1296      1
  1297  1292  1297      1
  1298  1297  1298      1
  1299  1297  1299      1
  1300  1297  1300      1
  1301  1298  1301      1
  1302  1298  1302      1
  1303  1298  1303      1
  1304  1303  1304      1
  1305  1303  1305      1
  1306  1303  1306      1
  1307  1304  1307      1
  1308  1304  1308      1
  1309  1304  1309      1
  1310  1309  1310      1
  1311  1309  1311      1
  1312  1309  1312      1
  1313  1310  1313      1
  1314  1310  1314      1
  1315  1310  1315      1
  1316  1315  1316      1
  1317  1315  1317      1
  1318  1315  1318      1
  1319  1316  1319      1
  1320  1316  1320      1
  1321  1316  1321      1
  1322  1321  1322      1
  1323  1321  1323      1
  1324  1321  1324      1
  1325  1322  1325      1
  1326  1322  1326      1
  1327  1322  1327      1
  1328  1327  1328      1
  1329  1327  1329      1
  1330  1327  1330      1
  1331  1328  1331      1
  1332  1328  1332      1
  1333  1328  1333      1
  1334  1333  1334      1
  1335  1333  1335      1
  1336  1333  1336      1
  1337  1334  1337      1
  1338  1334  1338      1
  1339  1334  1339      1
  1340  1339  1340      1
  1341  1339  1341      1
  1342  1339  1342      1
  1343  1340  1343      1
  1344  1340  1344      1
  1345  1340  1345      1
  1346  1345  1346      1
  1347  1345  1347      1
  1348  1345  1348      1
  1349  1346  1349      1
  1350  1346  1350      1
  1351  1346  1351      1
  1352  1351  1352      1
  1353  1351  1353      1
  1354  1351  1354      1
  1355  1352  1355      1
  1356  1352  1356      1
  1357  1352  1357      1
  1358  1357  1358      1
  1359  1357  1359      1
  1360  1357  1360      1
  1361  1358  1361      1
  1362  1358  1362      1
  1363  1358  1363      1
  1364  1363  1364      1
  1365  1363  1365      1
  1366  1363  1366      1
  1367  1364  1367      1
  1368  1364  1368      1
  1369  1364  1369      1
  1370  1369  1370      1
  1371  1369  1371      1
  1372  1369  1372      1
  1373  1370  1373      1
  1374  1370  1374      1
  1375  1370  1375      1
  1376  1375  1376      1
  1377  1375  1377      1
  1378  1375  1378      1
  1379  1376  1379      1
  1380  1376  1380      1
  1381  1376  1381      1
  1382  1381  1382      1
  1383  1381  1383      1
  1384  1381  1384      1
  1385  1382  1385      1
  1386  1382  1386      1
  1387  1382  1387      1
  1388  1387  1388      1
  1389  1387  1389      1
  1390  1387  1390      1
  1391  1388  1391      1
  1392  1388  1392      1
  1393  1388  1393      1
  1394  1393  1394      1
  1395  1393  1395      1
  1396  1393  1396      1
  1397  1394  1397      1
  1398  1394  1398      1
  1399  1394  1399      1
  1400  1399  1400      1
  1401  1399  1401      1
  1402  1399  1402      1
  1403  1400  1403      1
  1404  1400  1404      1
  1405  1400  1405      1
  1406  1405  1406      1
  1407  1405  1407      1
  1408  1405  1408      1
  1409  1406  1409      1
  1410  1406  1410      1
  1411  1406  1411      1
  1412  1411  1412      1
  1413  1411  1413      1
  1414  1411  1414      1
  1415  1412  1415      1
  1416  1412  1416      1
  1417  1412  1417      1
  1418  1417  1418      1
  1419  1417  1419      1
  1420  1417  1420      1
  1421  1418  1421      1
  1422  1418  1422      1
  1423  1418  1423      1
  1424  1423  1424      1
  1425  1423  1425      1
  1426  1423  1426      1
  1427  1424  1427      1
  1428  1424  1428      1
  1429  1424  1429      1
  1430  1429  1430      1
  1431  1429  1431      1
  1432  1429  1432      1
  1433  1430  1433      1
  1434  1430  1434      1
  1435  1430  1435      1
  1436  1435  1436      1
  1437  1435  1437      1
  1438  1435  1438      1
  1439  1436  1439      1
  1440  1436  1440      1
  1441  1436  1441      1
  1442  1441  1442      1
  1443  1441  1443      1
  1444  1441  1444      1
  1445  1442  1445      1
  1446  1442  1446      1
  1447  1442  1447      1
  1448  1447  1448      1
  1449  1447  1449      1
  1450  1447  1450      1
  1451  1448  1451      1
  1452  1448  1452      1
  1453  1448  1453      1
  1454  1453  1454      1
  1455  1453  1455      1
  1456  1453  1456      1
  1457  1454  1457      1
  1458  1454  1458      1
  1459  1454  1459      1
  1460  1459  1460      1
  1461  1459  1461      1
  1462  1459  1462      1
  1463  1460  1463      1
  1464  1460  1464      1
  1465  1460  1465      1
  1466  1465  1466      1
  1467  1465  1467      1
  1468  1465  1468      1
  1469  1466  1469      1
  1470  1466  1470      1
  1471  1466  1471      1
  1472  1471  1472      1
  1473  1471  1473      1
  1474  1471  1474      1
  1475  1472  1475      1
  1476  1472  1476      1
  1477  1472  1477      1
  1478  1477  1478      1
  1479  1477  1479      1
  1480  1477  1480      1
  1481  1478  1481      1
  1482  1478  1482      1
  1483  1478  1483      1
  1484  1483  1484      1
  1485  1483  1485      1
  1486  1483  1486      1
  1487  1484  1487      1
  1488  1484  1488      1
  1489  1484  1489      1
  1490  1489  1490      1
  1491  1489  1491      1
  1492  1489  1492      1
  1493  1490  1493      1
  1494  1490  1494      1
  1495  1490  1495      1
  1496  1495  1496      1
  1497  1495  1497      1
  1498  1495  1498      1
  1499  1496  1499      1
  1500  1496  1500      1
  1501  1496  1501      1
  1502  1501  1502      1
  1503  1501  1503      1
  1504  1501  1504      1
  1505  1502  1505      1
  1506  1502  1506      1
  1507  1502  1507      1
  1508  1507  1508      1
  1509  1507  1509      1
  1510  1507  1510      1
  1511  1508  1511      1
  1512  1508  1512      1
  1513  1508  1513      1
  1514  1513  1514      1
  1515  1513  1515      1
  1516  1513  1516      1
  1517  1514  1517      1
  1518  1514  1518      1
  1519  1514  1519      1
  1520  1519  1520      1
  1521  1519  1521      1
  1522  1519  1522      1
  1523  1520  1523      1
  1524  1520  1524      1
  1525  1520  1525      1
  1526  1525  1526      1
  1527  1525  1527      1
  1528  1525  1528      1
  1529  1526  1529      1
  1530  1526  1530      1
  1531  1526  1531      1
  1532  1531  1532      1
  1533  1531  1533      1
  1534  1531  1534      1
  1535  1532  1535      1
  1536  1532  1536      1
  1537  1532  1537      1
  1538  1537  1538      1
  1539  1537  1539      1
  1540  1537  1540      1
  1541  1538  1541      1
  1542  1538  1542      1
  1543  1538  1543      1
  1544  1543  1544      1
  1545  1543  1545      1
  1546  1543  1546      1
  1547  1544  1547      1
  1548  1544  1548      1
  1549  1544  1549      1
  1550  1549  1550      1
  1551  1549  1551      1
  1552  1549  1552      1
  1553  1550  1553      1
  1554  1550  1554      1
  1555  1550  1555      1
  1556  1555  1556      1
  1557  1555  1557      1
  1558  1555  1558      1
  1559  1556  1559      1
  1560  1556  1560      1
  1561  1556  1561      1
  1562  1561  1562      1
  1563  1561  1563      1
  1564  1561  1564      1
  1565  1562  1565      1
  1566  1562  1566      1
  1567  1562  1567      1
  1568  1567  1568      1
  1569  1567  1569      1
  1570  1567  1570      1
  1571  1568  1571      1
  1572  1568  1572      1
  1573  1568  1573      1
  1574  1573  1574      1
  1575  1573  1575      1
  1576  1573  1576      1
  1577  1574  1577      1
  1578  1574  1578      1
  1579  1574  1579      1
  1580  1579  1580      1
  1581  1579  1581      1
  1582  1579  1582      1
  1583  1580  1583      1
  1584  1580  1584      1
  1585  1580  1585      1
  1586  1585  1586      1
  1587  1585  1587      1
  1588  1585  1588      1
  1589  1586  1589      1
  1590  1586  1590      1
  1591  1586  1591      1
  1592  1591  1592      1
  1593  1591  1593      1
  1594  1591  1594      1
  1595  1592  1595      1
  1596  1592  1596      1
  1597  1592  1597      1
  1598  1597  1598      1
  1599  1597  1599      1
  1600  1597  1600      1
  1601  1598  1601      1
  1602  1598  1602      1
  1603  1598  1603      1
  1604  1603  1604      1
  1605  1603  1605      1
  1606  1603  1606      1
  1607  1604  1607      1
  1608  1604  1608      1
  1609  1604  1609      1
  1610  1609  1610      1
  1611  1609  1611      1
  1612  1609  1612      1
  1613  1610  1613      1
  1614  1610  1614      1
  1615  1610  1615      1
  1616  1615  1616      1
  1617  1615  1617      1
  1618  1615  1618      1
  1619  1616  1619      1
  1620  1616  1620      1
  1621  1616  1621      1
  1622  1621  1622      1
  1623  1621  1623      1
  1624  1621  1624      1
  1625  1622  1625      1
  1626  1622  1626      1
  1627  1622  1627      1
  1628  1627  1628      1
  1629  1627  1629      1
  1630  1627  1630      1
  1631  1628  1631      1
  1632  1628  1632      1
  1633  1628  1633      1
  1634  1633  1634      1
  1635  1633  1635      1
  1636  1633  1636      1
  1637  1634  1637      1
  1638  1634  1638      1
  1639  1634  1639      1
  1640  1639  1640      1
  1641  1639  1641      1
  1642  1639  1642      1
  1643  1640  1643      1
  1644  1640  1644      1
  1645  1640  1645      H
