###
### Created by PolyChef-cpp17 on Thu Feb 27 19:40:30 2025
###

@<TRIPOS>MOLECULE
NO_INFO
176 175 1 0 0
SMALL
USER_CHARGES


@<TRIPOS>ATOM
      1 C         189.2798  122.4687  120.6551 C.3       0        0    0.0000
      2 C         188.4513  121.3175  120.0742 C.3       0        0    0.0000
      3 H         188.8875  123.4302  120.3015 H         0        0    0.0000
      4 H         190.3161  122.4021  120.3014 H         0        0    0.0000
      5 H         188.4069  120.4874  120.7901 H         0        0    0.0000
      6 H         187.4177  121.6449  119.9070 H         0        0    0.0000
      7 C         189.0383  120.7868  118.7210 C.3       1        0    0.0000
      8 C         189.6324  121.9109  117.8650 C.3       1        0    0.0000
      9 H         189.8063  120.0345  118.9396 H         1        0    0.0000
     10 H         188.2425  120.2730  118.1676 H         1        0    0.0000
     11 H         188.9383  122.7595  117.8242 H         1        0    0.0000
     12 H         190.5579  122.2826  118.3218 H         1        0    0.0000
     13 C         189.9439  121.4421  116.4019 C.3       2        0    0.0000
     14 C         189.8819  122.5971  115.3963 C.3       2        0    0.0000
     15 H         190.9385  120.9798  116.3829 H         2        0    0.0000
     16 H         189.2276  120.6601  116.1210 H         2        0    0.0000
     17 H         188.9600  123.1736  115.5419 H         2        0    0.0000
     18 H         190.7162  123.2890  115.5662 H         2        0    0.0000
     19 C         189.9354  122.0960  113.9119 C.3       3        0    0.0000
     20 C         189.8194  123.2465  112.9059 C.3       3        0    0.0000
     21 H         190.8757  121.5530  113.7556 H         3        0    0.0000
     22 H         189.1247  121.3742  113.7530 H         3        0    0.0000
     23 H         188.8843  123.7963  113.0694 H         3        0    0.0000
     24 H         190.6366  123.9626  113.0576 H         3        0    0.0000
     25 C         189.8571  122.7438  111.4215 C.3       4        0    0.0000
     26 C         189.9084  123.9007  110.4176 C.3       4        0    0.0000
     27 H         190.7306  122.0931  111.2906 H         4        0    0.0000
     28 H         188.9715  122.1234  111.2357 H         4        0    0.0000
     29 H         189.0233  124.5385  110.5331 H         4        0    0.0000
     30 H         190.7815  124.5341  110.6179 H         4        0    0.0000
     31 C         189.9786  123.3977  108.9345 C.3       5        0    0.0000
     32 C         188.9458  124.0885  108.0373 C.3       5        0    0.0000
     33 H         190.9903  123.5745  108.5487 H         5        0    0.0000
     34 H         189.8219  122.3119  108.9216 H         5        0    0.0000
     35 H         187.9822  124.1575  108.5572 H         5        0    0.0000
     36 H         189.2621  125.1167  107.8223 H         5        0    0.0000
     37 C         188.7351  123.3306  106.6814 C.3       6        0    0.0000
     38 C         189.1136  124.1904  105.4704 C.3       6        0    0.0000
     39 H         189.3349  122.4121  106.6928 H         6        0    0.0000
     40 H         187.6853  123.0203  106.6090 H         6        0    0.0000
     41 H         188.2501  124.7841  105.1459 H         6        0    0.0000
     42 H         189.9003  124.9035  105.7465 H         6        0    0.0000
     43 C         189.6158  123.3269  104.2623 C.3       7        0    0.0000
     44 C         189.0574  123.8210  102.9232 C.3       7        0    0.0000
     45 H         190.7125  123.3488  104.2436 H         7        0    0.0000
     46 H         189.3244  122.2824  104.4289 H         7        0    0.0000
     47 H         187.9758  123.9854  103.0044 H         7        0    0.0000
     48 H         189.5044  124.7886  102.6633 H         7        0    0.0000
     49 C         189.3286  122.8095  101.7568 C.3       8        0    0.0000
     50 C         189.1741  123.4589  100.3771 C.3       8        0    0.0000
     51 H         190.3412  122.4027  101.8698 H         8        0    0.0000
     52 H         188.6367  121.9638  101.8541 H         8        0    0.0000
     53 H         188.1406  123.7982  100.2347 H         8        0    0.0000
     54 H         189.8107  124.3496  100.3072 H         8        0    0.0000
     55 C         189.5486  122.4776   99.2133 C.3       9        0    0.0000
     56 C         189.3357  123.1066   97.8320 C.3       9        0    0.0000
     57 H         190.5961  122.1733   99.3307 H         9        0    0.0000
     58 H         188.9435  121.5676   99.3096 H         9        0    0.0000
     59 H         188.2922  123.4265   97.7211 H         9        0    0.0000
     60 H         189.9538  124.0072   97.7295 H         9        0    0.0000
     61 C         189.6873  122.1172   96.6680 C.3      10        0    0.0000
     62 C         189.4657  122.7431   95.2867 C.3      10        0    0.0000
     63 H         190.7328  121.8025   96.7751 H        10        0    0.0000
     64 H         189.0740  121.2138   96.7745 H        10        0    0.0000
     65 H         188.4195  123.0551   95.1786 H        10        0    0.0000
     66 H         190.0768  123.6481   95.1814 H        10        0    0.0000
     67 C         189.8212  121.7551   94.1227 C.3      11        0    0.0000
     68 C         189.5910  122.3780   92.7414 C.3      11        0    0.0000
     69 H         190.8693  121.4482   94.2271 H        11        0    0.0000
     70 H         189.2148  120.8474   94.2318 H        11        0    0.0000
     71 H         188.5427  122.6838   92.6366 H        11        0    0.0000
     72 H         190.1965  123.2863   92.6327 H        11        0    0.0000
     73 C         189.9481  121.3905   91.5774 C.3      12        0    0.0000
     74 C         189.7177  122.0133   90.1961 C.3      12        0    0.0000
     75 H         190.9965  121.0848   91.6821 H        12        0    0.0000
     76 H         189.3427  120.4821   91.6862 H        12        0    0.0000
     77 H         188.6689  122.3177   90.0909 H        12        0    0.0000
     78 H         190.3219  122.9225   90.0878 H        12        0    0.0000
     79 C         190.0766  121.0264   89.0321 C.3      13        0    0.0000
     80 C         189.8495  121.6504   87.6508 C.3      13        0    0.0000
     81 H         191.1245  120.7200   89.1388 H        13        0    0.0000
     82 H         189.4704  120.1183   89.1389 H        13        0    0.0000
     83 H         188.8007  121.9536   87.5428 H        13        0    0.0000
     84 H         190.4529  122.5605   87.5453 H        13        0    0.0000
     85 C         190.2132  120.6653   86.4868 C.3      14        0    0.0000
     86 C         189.9826  121.2881   85.1055 C.3      14        0    0.0000
     87 H         191.2627  120.3643   86.5933 H        14        0    0.0000
     88 H         189.6116  119.7542   86.5938 H        14        0    0.0000
     89 H         188.9321  121.5851   84.9974 H        14        0    0.0000
     90 H         190.5807  122.2017   85.0001 H        14        0    0.0000
     91 C         190.3521  120.3052   83.9415 C.3      15        0    0.0000
     92 C         190.1220  120.9280   82.5602 C.3      15        0    0.0000
     93 H         191.4026  120.0078   84.0499 H        15        0    0.0000
     94 H         189.7537  119.3917   84.0466 H        15        0    0.0000
     95 H         189.0898  121.2902   82.4781 H        15        0    0.0000
     96 H         190.7736  121.8007   82.4278 H        15        0    0.0000
     97 C         190.3952  119.9126   81.3976 C.3      16        0    0.0000
     98 C         190.1441  120.5289   80.0170 C.3      16        0    0.0000
     99 H         191.4324  119.5625   81.4702 H        16        0    0.0000
    100 H         189.7552  119.0328   81.5388 H        16        0    0.0000
    101 H         189.2475  121.1605   80.0444 H        16        0    0.0000
    102 H         190.9808  121.1816   79.7386 H        16        0    0.0000
    103 C         189.9610  119.4398   78.9045 C.3      17        0    0.0000
    104 C         189.8680  120.0516   77.5023 C.3      17        0    0.0000
    105 H         190.8035  118.7388   78.9539 H        17        0    0.0000
    106 H         189.0556  118.8601   79.1227 H        17        0    0.0000
    107 H         188.9983  120.7173   77.4393 H        17        0    0.0000
    108 H         190.7524  120.6690   77.3019 H        17        0    0.0000
    109 C         189.7503  118.9593   76.3841 C.3      18        0    0.0000
    110 C         190.7067  119.2195   75.2150 C.3      18        0    0.0000
    111 H         189.9558  117.9767   76.8266 H        18        0    0.0000
    112 H         188.7145  118.9322   76.0238 H        18        0    0.0000
    113 H         190.2847  119.9796   74.5458 H        18        0    0.0000
    114 H         191.6568  119.6212   75.5885 H        18        0    0.0000
    115 C         190.9980  117.9216   74.3855 C.3      19        0    0.0000
    116 C         190.3771  117.9756   72.9853 C.3      19        0    0.0000
    117 H         192.0841  117.7862   74.3104 H        19        0    0.0000
    118 H         190.6099  117.0556   74.9360 H        19        0    0.0000
    119 H         189.5703  118.7186   72.9599 H        19        0    0.0000
    120 H         191.1272  118.2999   72.2534 H        19        0    0.0000
    121 C         189.8006  116.5884   72.5372 C.3      20        0    0.0000
    122 C         190.4111  116.1047   71.2171 C.3      20        0    0.0000
    123 H         189.9893  115.8542   73.3302 H        20        0    0.0000
    124 H         188.7113  116.6731   72.4391 H        20        0    0.0000
    125 H         189.9229  116.6046   70.3714 H        20        0    0.0000
    126 H         191.4733  116.3753   71.1725 H        20        0    0.0000
    127 C         190.2766  114.5537   71.0334 C.3      21        0    0.0000
    128 C         189.4928  114.1843   69.7692 C.3      21        0    0.0000
    129 H         191.2809  114.1138   70.9953 H        21        0    0.0000
    130 H         189.7824  114.1343   71.9185 H        21        0    0.0000
    131 H         188.7031  114.9237   69.5868 H        21        0    0.0000
    132 H         190.1553  114.2089   68.8952 H        21        0    0.0000
    133 C         188.8404  112.7624   69.8689 C.3      22        0    0.0000
    134 C         189.5615  111.7299   68.9955 C.3      22        0    0.0000
    135 H         188.8513  112.4411   70.9178 H        22        0    0.0000
    136 H         187.7866  112.8353   69.5728 H        22        0    0.0000
    137 H         188.8293  111.0956   68.4807 H        22        0    0.0000
    138 H         190.1425  112.2373   68.2153 H        22        0    0.0000
    139 C         190.5247  110.8158   69.8287 C.3      23        0    0.0000
    140 C         190.2745  109.3251   69.5752 C.3      23        0    0.0000
    141 H         191.5612  111.0715   69.5764 H        23        0    0.0000
    142 H         190.3945  111.0433   70.8940 H        23        0    0.0000
    143 H         189.8731  109.1775   68.5649 H        23        0    0.0000
    144 H         191.2205  108.7716   69.6222 H        23        0    0.0000
    145 C         189.2747  108.7058   70.6117 C.3      24        0    0.0000
    146 C         189.7600  107.3562   71.1521 C.3      24        0    0.0000
    147 H         189.1377  109.4145   71.4378 H        24        0    0.0000
    148 H         188.2952  108.5885   70.1316 H        24        0    0.0000
    149 H         188.9164  106.6603   71.2387 H        24        0    0.0000
    150 H         190.4709  106.9035   70.4498 H        24        0    0.0000
    151 C         190.4501  107.4907   72.5532 C.3      25        0    0.0000
    152 C         189.8744  106.5099   73.5807 C.3      25        0    0.0000
    153 H         191.5275  107.3217   72.4344 H        25        0    0.0000
    154 H         190.3302  108.5215   72.9089 H        25        0    0.0000
    155 H         189.4543  105.6342   73.0705 H        25        0    0.0000
    156 H         190.6727  106.1398   74.2359 H        25        0    0.0000
    157 C         188.7573  107.1636   74.4651 C.3      26        0    0.0000
    158 C         189.0277  106.9911   75.9638 C.3      26        0    0.0000
    159 H         188.6875  108.2297   74.2157 H        26        0    0.0000
    160 H         187.7911  106.7149   74.2031 H        26        0    0.0000
    161 H         188.0990  106.7294   76.4859 H        26        0    0.0000
    162 H         189.7256  106.1605   76.1269 H        26        0    0.0000
    163 C         189.6243  108.2873   76.6129 C.3      27        0    0.0000
    164 C         188.7596  108.8108   77.7650 C.3      27        0    0.0000
    165 H         190.6375  108.0686   76.9724 H        27        0    0.0000
    166 H         189.7244  109.0571   75.8377 H        27        0    0.0000
    167 H         188.1130  108.0098   78.1441 H        27        0    0.0000
    168 H         189.3968  109.1238   78.6014 H        27        0    0.0000
    169 C         187.8631  110.0218   77.3321 C.3      28        0    0.0000
    170 C         188.1359  111.2754   78.1705 C.3      28        0    0.0000
    171 H         188.0424  110.2328   76.2705 H        28        0    0.0000
    172 H         186.8090  109.7312   77.4219 H        28        0    0.0000
    173 H         187.9566  111.0644   79.2321 H        28        0    0.0000
    174 H         189.1900  111.5660   78.0807 H        28        0    0.0000
    175 H         187.5125  112.1174   77.8695 H        28        0    0.0000
    176 H         189.2798  122.4687  121.7450 H         0        0    0.0000
@<TRIPOS>BOND
     1     1     2      1
     2     1     3      1
     3     1     4      1
     4     1   176      H
     5     2     5      1
     6     2     6      1
     7     2     7      1
     8     7     8      1
     9     7     9      1
    10     7    10      1
    11     8    11      1
    12     8    12      1
    13     8    13      1
    14    13    14      1
    15    13    15      1
    16    13    16      1
    17    14    17      1
    18    14    18      1
    19    14    19      1
    20    19    20      1
    21    19    21      1
    22    19    22      1
    23    20    23      1
    24    20    24      1
    25    20    25      1
    26    25    26      1
    27    25    27      1
    28    25    28      1
    29    26    29      1
    30    26    30      1
    31    26    31      1
    32    31    32      1
    33    31    33      1
    34    31    34      1
    35    32    35      1
    36    32    36      1
    37    32    37      1
    38    37    38      1
    39    37    39      1
    40    37    40      1
    41    38    41      1
    42    38    42      1
    43    38    43      1
    44    43    44      1
    45    43    45      1
    46    43    46      1
    47    44    47      1
    48    44    48      1
    49    44    49      1
    50    49    50      1
    51    49    51      1
    52    49    52      1
    53    50    53      1
    54    50    54      1
    55    50    55      1
    56    55    56      1
    57    55    57      1
    58    55    58      1
    59    56    59      1
    60    56    60      1
    61    56    61      1
    62    61    62      1
    63    61    63      1
    64    61    64      1
    65    62    65      1
    66    62    66      1
    67    62    67      1
    68    67    68      1
    69    67    69      1
    70    67    70      1
    71    68    71      1
    72    68    72      1
    73    68    73      1
    74    73    74      1
    75    73    75      1
    76    73    76      1
    77    74    77      1
    78    74    78      1
    79    74    79      1
    80    79    80      1
    81    79    81      1
    82    79    82      1
    83    80    83      1
    84    80    84      1
    85    80    85      1
    86    85    86      1
    87    85    87      1
    88    85    88      1
    89    86    89      1
    90    86    90      1
    91    86    91      1
    92    91    92      1
    93    91    93      1
    94    91    94      1
    95    92    95      1
    96    92    96      1
    97    92    97      1
    98    97    98      1
    99    97    99      1
   100    97   100      1
   101    98   101      1
   102    98   102      1
   103    98   103      1
   104   103   104      1
   105   103   105      1
   106   103   106      1
   107   104   107      1
   108   104   108      1
   109   104   109      1
   110   109   110      1
   111   109   111      1
   112   109   112      1
   113   110   113      1
   114   110   114      1
   115   110   115      1
   116   115   116      1
   117   115   117      1
   118   115   118      1
   119   116   119      1
   120   116   120      1
   121   116   121      1
   122   121   122      1
   123   121   123      1
   124   121   124      1
   125   122   125      1
   126   122   126      1
   127   122   127      1
   128   127   128      1
   129   127   129      1
   130   127   130      1
   131   128   131      1
   132   128   132      1
   133   128   133      1
   134   133   134      1
   135   133   135      1
   136   133   136      1
   137   134   137      1
   138   134   138      1
   139   134   139      1
   140   139   140      1
   141   139   141      1
   142   139   142      1
   143   140   143      1
   144   140   144      1
   145   140   145      1
   146   145   146      1
   147   145   147      1
   148   145   148      1
   149   146   149      1
   150   146   150      1
   151   146   151      1
   152   151   152      1
   153   151   153      1
   154   151   154      1
   155   152   155      1
   156   152   156      1
   157   152   157      1
   158   157   158      1
   159   157   159      1
   160   157   160      1
   161   158   161      1
   162   158   162      1
   163   158   163      1
   164   163   164      1
   165   163   165      1
   166   163   166      1
   167   164   167      1
   168   164   168      1
   169   164   169      1
   170   169   170      1
   171   169   171      1
   172   169   172      1
   173   170   173      1
   174   170   174      1
   175   170   175      H
