###
### Created by PolyChef-cpp17 on Thu Feb 27 19:40:28 2025
###

@<TRIPOS>MOLECULE
NO_INFO
350 349 1 0 0
SMALL
USER_CHARGES


@<TRIPOS>ATOM
      1 C         109.2798  191.7487  -39.3449 C.3       0        0    0.0000
      2 C         107.8706  191.5882  -38.7641 C.3       0        0    0.0000
      3 H         109.9271  190.9366  -38.9913 H         0        0    0.0000
      4 H         109.7280  192.6855  -38.9913 H         0        0    0.0000
      5 H         107.3721  192.5641  -38.7112 H         0        0    0.0000
      6 H         107.2611  190.9585  -39.4241 H         0        0    0.0000
      7 C         107.8873  190.9511  -37.3319 C.3       1        0    0.0000
      8 C         109.1652  191.2944  -36.5584 C.3       1        0    0.0000
      9 H         107.0072  191.3016  -36.7786 H         1        0    0.0000
     10 H         107.7865  189.8629  -37.4277 H         1        0    0.0000
     11 H         110.0454  191.1192  -37.1894 H         1        0    0.0000
     12 H         109.1720  192.3598  -36.2970 H         1        0    0.0000
     13 C         109.3092  190.4509  -35.2448 C.3       2        0    0.0000
     14 C         110.2033  191.1393  -34.2077 C.3       2        0    0.0000
     15 H         108.3107  190.2774  -34.8248 H         2        0    0.0000
     16 H         109.7191  189.4659  -35.5003 H         2        0    0.0000
     17 H         111.2586  191.0217  -34.4835 H         2        0    0.0000
     18 H         110.0001  192.2173  -34.1920 H         2        0    0.0000
     19 C         109.9910  190.5641  -32.7649 C.3       3        0    0.0000
     20 C         110.6134  191.4573  -31.6861 C.3       3        0    0.0000
     21 H         108.9149  190.4505  -32.5844 H         3        0    0.0000
     22 H         110.4263  189.5582  -32.7177 H         3        0    0.0000
     23 H         111.7025  191.4964  -31.8123 H         3        0    0.0000
     24 H         110.2469  192.4859  -31.7918 H         3        0    0.0000
     25 C         110.2904  190.9522  -30.2376 C.3       4        0    0.0000
     26 C         110.8866  191.8629  -29.1585 C.3       4        0    0.0000
     27 H         109.2015  190.8914  -30.1189 H         4        0    0.0000
     28 H         110.6772  189.9319  -30.1244 H         4        0    0.0000
     29 H         111.9763  191.9176  -29.2725 H         4        0    0.0000
     30 H         110.5057  192.8849  -29.2764 H         4        0    0.0000
     31 C         110.5545  191.3638  -27.7100 C.3       5        0    0.0000
     32 C         111.1616  192.2671  -26.6310 C.3       5        0    0.0000
     33 H         109.4647  191.3181  -27.5929 H         5        0    0.0000
     34 H         110.9269  190.3382  -27.5953 H         5        0    0.0000
     35 H         112.2511  192.3155  -26.7501 H         5        0    0.0000
     36 H         110.7866  193.2919  -26.7436 H         5        0    0.0000
     37 C         110.8335  191.7654  -25.1825 C.3       6        0    0.0000
     38 C         111.3965  192.6971  -24.1036 C.3       6        0    0.0000
     39 H         109.7449  191.6808  -25.0757 H         6        0    0.0000
     40 H         111.2418  190.7549  -25.0573 H         6        0    0.0000
     41 H         112.4860  192.7752  -24.2053 H         6        0    0.0000
     42 H         110.9945  193.7095  -24.2337 H         6        0    0.0000
     43 C         111.0585  192.2016  -22.6553 C.3       7        0    0.0000
     44 C         112.1467  192.5782  -21.6438 C.3       7        0    0.0000
     45 H         110.0963  192.6313  -22.3501 H         7        0    0.0000
     46 H         110.9249  191.1129  -22.6761 H         7        0    0.0000
     47 H         113.1288  192.2543  -22.0098 H         7        0    0.0000
     48 H         112.1958  193.6686  -21.5326 H         7        0    0.0000
     49 C         111.8959  191.9375  -20.2352 C.3       8        0    0.0000
     50 C         111.9047  192.9809  -19.1126 C.3       8        0    0.0000
     51 H         110.9333  191.4115  -20.2523 H         8        0    0.0000
     52 H         112.6662  191.1788  -20.0496 H         8        0    0.0000
     53 H         112.9374  193.2256  -18.8346 H         8        0    0.0000
     54 H         111.4432  193.9130  -19.4617 H         8        0    0.0000
     55 C         111.1413  192.4864  -17.8358 C.3       9        0    0.0000
     56 C         112.0043  192.5750  -16.5723 C.3       9        0    0.0000
     57 H         110.2316  193.0872  -17.7129 H         9        0    0.0000
     58 H         110.8158  191.4512  -17.9972 H         9        0    0.0000
     59 H         113.0218  192.2250  -16.7864 H         9        0    0.0000
     60 H         112.0920  193.6197  -16.2492 H         9        0    0.0000
     61 C         111.4169  191.7282  -15.3911 C.3      10        0    0.0000
     62 C         111.7396  192.3381  -14.0225 C.3      10        0    0.0000
     63 H         110.3304  191.6474  -15.5201 H        10        0    0.0000
     64 H         111.8182  190.7091  -15.4528 H        10        0    0.0000
     65 H         112.8191  192.2880  -13.8335 H        10        0    0.0000
     66 H         111.4667  193.4006  -14.0104 H        10        0    0.0000
     67 C         110.9879  191.6100  -12.8554 C.3      11        0    0.0000
     68 C         111.4570  192.0860  -11.4761 C.3      11        0    0.0000
     69 H         109.9103  191.7830  -12.9666 H        11        0    0.0000
     70 H         111.1452  190.5287  -12.9537 H        11        0    0.0000
     71 H         112.5411  191.9488  -11.3795 H        11        0    0.0000
     72 H         111.2640  193.1600  -11.3632 H        11        0    0.0000
     73 C         110.7446  191.3192  -10.3091 C.3      12        0    0.0000
     74 C         111.2043  191.8041   -8.9297 C.3      12        0    0.0000
     75 H         109.6600  191.4486  -10.4111 H        12        0    0.0000
     76 H         110.9454  190.2460  -10.4167 H        12        0    0.0000
     77 H         112.2882  191.6704   -8.8260 H        12        0    0.0000
     78 H         111.0078  192.8782   -8.8238 H        12        0    0.0000
     79 C         110.4872  191.0417   -7.7626 C.3      13        0    0.0000
     80 C         110.9416  191.5316   -6.3833 C.3      13        0    0.0000
     81 H         109.4031  191.1710   -7.8693 H        13        0    0.0000
     82 H         110.6881  189.9681   -7.8655 H        13        0    0.0000
     83 H         112.0249  191.3968   -6.2743 H        13        0    0.0000
     84 H         110.7462  192.6064   -6.2826 H        13        0    0.0000
     85 C         110.2184  190.7750   -5.2162 C.3      14        0    0.0000
     86 C         110.6493  191.2867   -3.8373 C.3      14        0    0.0000
     87 H         109.1343  190.8902   -5.3384 H        14        0    0.0000
     88 H         110.4331  189.7027   -5.3034 H        14        0    0.0000
     89 H         111.7316  191.1600   -3.7103 H        14        0    0.0000
     90 H         110.4461  192.3617   -3.7546 H        14        0    0.0000
     91 C         109.9131  190.5422   -2.6706 C.3      15        0    0.0000
     92 C         110.3879  191.0114   -1.2910 C.3      15        0    0.0000
     93 H         108.8331  190.7060   -2.7725 H        15        0    0.0000
     94 H         110.0796  189.4633   -2.7789 H        15        0    0.0000
     95 H         111.4839  190.9948   -1.2447 H        15        0    0.0000
     96 H         110.0811  192.0509   -1.1210 H        15        0    0.0000
     97 C         109.8198  190.1210   -0.1326 C.3      16        0    0.0000
     98 C         110.5416  190.3674    1.1968 C.3      16        0    0.0000
     99 H         108.7477  190.3262   -0.0222 H        16        0    0.0000
    100 H         109.9107  189.0663   -0.4202 H        16        0    0.0000
    101 H         111.6277  190.3216    1.0492 H        16        0    0.0000
    102 H         110.3161  191.3754    1.5662 H        16        0    0.0000
    103 C         110.1365  189.3245    2.2949 C.3      17        0    0.0000
    104 C         111.2935  189.0059    3.2484 C.3      17        0    0.0000
    105 H         109.2820  189.7187    2.8589 H        17        0    0.0000
    106 H         109.7922  188.4071    1.8015 H        17        0    0.0000
    107 H         112.2082  188.8065    2.6764 H        17        0    0.0000
    108 H         111.5040  189.8725    3.8872 H        17        0    0.0000
    109 C         110.9879  187.7681    4.1605 C.3      18        0    0.0000
    110 C         111.0863  188.1072    5.6519 C.3      18        0    0.0000
    111 H         109.9836  187.3947    3.9250 H        18        0    0.0000
    112 H         111.6900  186.9629    3.9107 H        18        0    0.0000
    113 H         112.0893  187.8680    6.0267 H        18        0    0.0000
    114 H         110.9421  189.1841    5.8031 H        18        0    0.0000
    115 C         110.0281  187.3304    6.5088 C.3      19        0    0.0000
    116 C         110.5735  185.9998    7.0388 C.3      19        0    0.0000
    117 H         109.7134  187.9676    7.3446 H        19        0    0.0000
    118 H         109.1366  187.1536    5.8945 H        19        0    0.0000
    119 H         111.6705  186.0126    7.0300 H        19        0    0.0000
    120 H         110.2684  185.8573    8.0829 H        19        0    0.0000
    121 C         110.0758  184.7756    6.1955 C.3      20        0    0.0000
    122 C         109.4261  183.6954    7.0673 C.3      20        0    0.0000
    123 H         109.3613  185.1317    5.4429 H        20        0    0.0000
    124 H         110.9274  184.3544    5.6469 H        20        0    0.0000
    125 H         110.1887  182.9941    7.4279 H        20        0    0.0000
    126 H         108.9723  184.1517    7.9558 H        20        0    0.0000
    127 C         108.3250  182.8908    6.2942 C.3      21        0    0.0000
    128 C         107.9478  181.5885    7.0089 C.3      21        0    0.0000
    129 H         107.4385  183.5265    6.1781 H        21        0    0.0000
    130 H         108.6908  182.6726    5.2831 H        21        0    0.0000
    131 H         107.9485  181.7418    8.0952 H        21        0    0.0000
    132 H         106.9288  181.2898    6.7335 H        21        0    0.0000
    133 C         108.9289  180.4156    6.6636 C.3      22        0    0.0000
    134 C         108.8422  179.2685    7.6763 C.3      22        0    0.0000
    135 H         108.6983  180.0465    5.6565 H        22        0    0.0000
    136 H         109.9523  180.8094    6.6281 H        22        0    0.0000
    137 H         108.4008  179.6275    8.6144 H        22        0    0.0000
    138 H         108.1789  178.4812    7.2971 H        22        0    0.0000
    139 C         110.2453  178.6416    7.9856 C.3      23        0    0.0000
    140 C         110.2275  177.7714    9.2471 C.3      23        0    0.0000
    141 H         110.5643  178.0452    7.1218 H        23        0    0.0000
    142 H         110.9774  179.4510    8.0972 H        23        0    0.0000
    143 H         109.7210  178.3020   10.0629 H        23        0    0.0000
    144 H         109.6537  176.8545    9.0636 H        23        0    0.0000
    145 C         111.6701  177.3788    9.7185 C.3      24        0    0.0000
    146 C         111.9977  177.9334   11.1092 C.3      24        0    0.0000
    147 H         111.7562  176.2851    9.7198 H        24        0    0.0000
    148 H         112.3955  177.7511    8.9846 H        24        0    0.0000
    149 H         112.1816  179.0133   11.0498 H        24        0    0.0000
    150 H         111.1409  177.7962   11.7804 H        24        0    0.0000
    151 C         113.2529  177.2413   11.7443 C.3      25        0    0.0000
    152 C         114.3711  178.2415   12.0579 C.3      25        0    0.0000
    153 H         112.9448  176.7221   12.6602 H        25        0    0.0000
    154 H         113.6194  176.4716   11.0538 H        25        0    0.0000
    155 H         114.7177  178.7203   11.1337 H        25        0    0.0000
    156 H         113.9895  179.0421   12.7036 H        25        0    0.0000
    157 C         115.5946  177.5623   12.7646 C.3      26        0    0.0000
    158 C         116.2806  178.4988   13.7653 C.3      26        0    0.0000
    159 H         115.2491  176.6546   13.2748 H        26        0    0.0000
    160 H         116.3110  177.2400   11.9989 H        26        0    0.0000
    161 H         116.5350  179.4484   13.2784 H        26        0    0.0000
    162 H         115.5942  178.7398   14.5865 H        26        0    0.0000
    163 C         117.5866  177.8730   14.3655 C.3      27        0    0.0000
    164 C         118.4839  178.9248   15.0269 C.3      27        0    0.0000
    165 H         117.3067  177.1041   15.0963 H        27        0    0.0000
    166 H         118.1342  177.3615   13.5642 H        27        0    0.0000
    167 H         117.9494  179.4090   15.8537 H        27        0    0.0000
    168 H         119.3687  178.4442   15.4624 H        27        0    0.0000
    169 C         118.9535  180.0262   14.0150 C.3      28        0    0.0000
    170 C         119.8207  181.0981   14.6844 C.3      28        0    0.0000
    171 H         119.5111  179.5448   13.2021 H        28        0    0.0000
    172 H         118.0688  180.4883   13.5597 H        28        0    0.0000
    173 H         119.6484  181.0987   15.7678 H        28        0    0.0000
    174 H         120.8832  180.8700   14.5344 H        28        0    0.0000
    175 C         119.5282  182.5332   14.1254 C.3      29        0    0.0000
    176 C         120.4060  183.6031   14.7840 C.3      29        0    0.0000
    177 H         119.6897  182.5297   13.0403 H        29        0    0.0000
    178 H         118.4680  182.7657   14.2854 H        29        0    0.0000
    179 H         120.2815  184.5625   14.2667 H        29        0    0.0000
    180 H         120.0902  183.7619   15.8225 H        29        0    0.0000
    181 C         121.9250  183.2156   14.7713 C.3      30        0    0.0000
    182 C         122.7856  184.2138   15.5537 C.3      30        0    0.0000
    183 H         122.0369  182.2097   15.1946 H        30        0    0.0000
    184 H         122.2669  183.1592   13.7304 H        30        0    0.0000
    185 H         123.1715  183.7432   16.4664 H        30        0    0.0000
    186 H         123.6583  184.5066   14.9570 H        30        0    0.0000
    187 C         121.9878  185.5040   15.9490 C.3      31        0    0.0000
    188 C         122.9064  186.6250   16.4475 C.3      31        0    0.0000
    189 H         121.4151  185.8464   15.0781 H        31        0    0.0000
    190 H         121.2566  185.2440   16.7244 H        31        0    0.0000
    191 H         122.9406  186.6236   17.5441 H        31        0    0.0000
    192 H         123.9327  186.4528   16.1001 H        31        0    0.0000
    193 C         122.4380  188.0388   15.9584 C.3      32        0    0.0000
    194 C         123.6101  188.9111   15.4956 C.3      32        0    0.0000
    195 H         121.7191  187.9095   15.1398 H        32        0    0.0000
    196 H         121.8993  188.5350   16.7752 H        32        0    0.0000
    197 H         124.0228  189.4685   16.3456 H        32        0    0.0000
    198 H         124.4199  188.2794   15.1100 H        32        0    0.0000
    199 C         123.1889  189.9292   14.3805 C.3      33        0    0.0000
    200 C         124.2383  190.0404   13.2690 C.3      33        0    0.0000
    201 H         122.2264  189.6138   13.9589 H        33        0    0.0000
    202 H         123.0241  190.9109   14.8418 H        33        0    0.0000
    203 H         124.9254  190.8687   13.4819 H        33        0    0.0000
    204 H         124.8464  189.1280   13.2332 H        33        0    0.0000
    205 C         123.5898  190.2710   11.8605 C.3      34        0    0.0000
    206 C         124.6053  190.1226   10.7222 C.3      34        0    0.0000
    207 H         122.7688  189.5557   11.7278 H        34        0    0.0000
    208 H         123.1422  191.2724   11.8371 H        34        0    0.0000
    209 H         125.4124  190.8563   10.8400 H        34        0    0.0000
    210 H         125.0728  189.1309   10.7621 H        34        0    0.0000
    211 C         123.9491  190.3155    9.3117 C.3      35        0    0.0000
    212 C         124.9792  190.2547    8.1785 C.3      35        0    0.0000
    213 H         123.1856  189.5408    9.1680 H        35        0    0.0000
    214 H         123.4265  191.2800    9.2937 H        35        0    0.0000
    215 H         125.7575  191.0116    8.3366 H        35        0    0.0000
    216 H         125.4828  189.2800    8.1798 H        35        0    0.0000
    217 C         124.3286  190.4854    6.7711 C.3      36        0    0.0000
    218 C         125.3619  190.4458    5.6399 C.3      36        0    0.0000
    219 H         123.5610  189.7190    6.6064 H        36        0    0.0000
    220 H         123.8118  191.4531    6.7748 H        36        0    0.0000
    221 H         126.1349  191.2055    5.8098 H        36        0    0.0000
    222 H         125.8717  189.4744    5.6299 H        36        0    0.0000
    223 C         124.7133  190.6905    4.2338 C.3      37        0    0.0000
    224 C         125.7497  190.6715    3.1049 C.3      37        0    0.0000
    225 H         123.9509  189.9217    4.0575 H        37        0    0.0000
    226 H         124.1907  191.6550    4.2485 H        37        0    0.0000
    227 H         126.1119  189.6486    2.9438 H        37        0    0.0000
    228 H         125.2868  190.9936    2.1638 H        37        0    0.0000
    229 C         126.9760  191.5998    3.4084 C.3      38        0    0.0000
    230 C         128.1187  191.3985    2.4071 C.3      38        0    0.0000
    231 H         126.6413  192.6444    3.3923 H        38        0    0.0000
    232 H         127.3288  191.3977    4.4274 H        38        0    0.0000
    233 H         128.5263  192.3700    2.1013 H        38        0    0.0000
    234 H         128.9406  190.8469    2.8801 H        38        0    0.0000
    235 C         127.6573  190.6189    1.1278 C.3      39        0    0.0000
    236 C         128.8008  190.4148    0.1279 C.3      39        0    0.0000
    237 H         127.2475  189.6483    1.4338 H        39        0    0.0000
    238 H         126.8370  191.1717    0.6534 H        39        0    0.0000
    239 H         129.7676  190.5212    0.6353 H        39        0    0.0000
    240 H         128.7684  189.3960   -0.2778 H        39        0    0.0000
    241 C         128.7393  191.4344   -1.0612 C.3      40        0    0.0000
    242 C         129.6559  191.0301   -2.2211 C.3      40        0    0.0000
    243 H         127.7018  191.5088   -1.4100 H        40        0    0.0000
    244 H         129.0188  192.4281   -0.6897 H        40        0    0.0000
    245 H         130.6105  191.5661   -2.1507 H        40        0    0.0000
    246 H         129.8902  189.9601   -2.1600 H        40        0    0.0000
    247 C         129.0116  191.3272   -3.6190 C.3      41        0    0.0000
    248 C         129.8197  190.7212   -4.7717 C.3      41        0    0.0000
    249 H         127.9884  190.9313   -3.6280 H        41        0    0.0000
    250 H         128.9301  192.4137   -3.7470 H        41        0    0.0000
    251 H         130.8581  191.0726   -4.7285 H        41        0    0.0000
    252 H         129.8524  189.6290   -4.6748 H        41        0    0.0000
    253 C         129.2206  191.0864   -6.1736 C.3      42        0    0.0000
    254 C         130.0410  190.4982   -7.3269 C.3      42        0    0.0000
    255 H         128.1873  190.7212   -6.2225 H        42        0    0.0000
    256 H         129.1734  192.1786   -6.2643 H        42        0    0.0000
    257 H         131.0825  190.8360   -7.2583 H        42        0    0.0000
    258 H         130.0595  189.4036   -7.2554 H        42        0    0.0000
    259 C         129.4698  190.9033   -8.7294 C.3      43        0    0.0000
    260 C         130.2895  190.3142   -9.8827 C.3      43        0    0.0000
    261 H         128.4280  190.5662   -8.7977 H        43        0    0.0000
    262 H         129.4520  191.9979   -8.8012 H        43        0    0.0000
    263 H         131.3316  190.6498   -9.8132 H        43        0    0.0000
    264 H         130.3056  189.2196   -9.8120 H        43        0    0.0000
    265 C         129.7199  190.7216  -11.2852 C.3      44        0    0.0000
    266 C         130.5405  190.1337  -12.4384 C.3      44        0    0.0000
    267 H         128.6780  190.3852  -11.3550 H        44        0    0.0000
    268 H         129.7028  191.8163  -11.3555 H        44        0    0.0000
    269 H         131.5820  190.4712  -12.3693 H        44        0    0.0000
    270 H         130.5586  189.0391  -12.3674 H        44        0    0.0000
    271 C         129.9698  190.5397  -13.8410 C.3      45        0    0.0000
    272 C         130.7917  189.9536  -14.9942 C.3      45        0    0.0000
    273 H         128.9288  190.2009  -13.9107 H        45        0    0.0000
    274 H         129.9503  191.6344  -13.9114 H        45        0    0.0000
    275 H         131.8335  190.2899  -14.9227 H        45        0    0.0000
    276 H         130.8086  188.8588  -14.9257 H        45        0    0.0000
    277 C         130.2237  190.3633  -16.3967 C.3      46        0    0.0000
    278 C         131.0410  189.7708  -17.5500 C.3      46        0    0.0000
    279 H         129.1802  190.0319  -16.4662 H        46        0    0.0000
    280 H         130.2120  191.4580  -16.4675 H        46        0    0.0000
    281 H         132.0843  190.1033  -17.4814 H        46        0    0.0000
    282 H         131.0539  188.6762  -17.4785 H        46        0    0.0000
    283 C         130.4719  190.1789  -18.9525 C.3      47        0    0.0000
    284 C         131.2906  189.5885  -20.1058 C.3      47        0    0.0000
    285 H         129.4292  189.8448  -19.0218 H        47        0    0.0000
    286 H         130.4573  191.2736  -19.0234 H        47        0    0.0000
    287 H         132.3336  189.9214  -20.0357 H        47        0    0.0000
    288 H         131.3040  188.4937  -20.0358 H        47        0    0.0000
    289 C         130.7227  189.9982  -21.5083 C.3      48        0    0.0000
    290 C         131.5427  189.4096  -22.6616 C.3      48        0    0.0000
    291 H         129.6802  189.6638  -21.5790 H        48        0    0.0000
    292 H         130.7077  191.0929  -21.5777 H        48        0    0.0000
    293 H         132.5853  189.7434  -22.5905 H        48        0    0.0000
    294 H         131.5572  188.3148  -22.5925 H        48        0    0.0000
    295 C         130.9753  189.8199  -24.0641 C.3      49        0    0.0000
    296 C         131.7888  189.2223  -25.2174 C.3      49        0    0.0000
    297 H         129.9302  189.4932  -24.1321 H        49        0    0.0000
    298 H         130.9684  190.9146  -24.1363 H        49        0    0.0000
    299 H         132.8337  189.5497  -25.1498 H        49        0    0.0000
    300 H         131.7964  188.1277  -25.1447 H        49        0    0.0000
    301 C         131.2207  189.6317  -26.6199 C.3      50        0    0.0000
    302 C         132.0399  189.0418  -27.7731 C.3      50        0    0.0000
    303 H         130.1779  189.2982  -26.6901 H        50        0    0.0000
    304 H         131.2067  190.7265  -26.6899 H        50        0    0.0000
    305 H         133.0832  189.3735  -27.7017 H        50        0    0.0000
    306 H         132.0520  187.9470  -27.7044 H        50        0    0.0000
    307 C         131.4736  189.4538  -29.1757 C.3      51        0    0.0000
    308 C         132.2836  188.8513  -30.3289 C.3      51        0    0.0000
    309 H         130.4270  189.1320  -29.2428 H        51        0    0.0000
    310 H         131.4720  190.5484  -29.2487 H        51        0    0.0000
    311 H         133.3293  189.1768  -30.2644 H        51        0    0.0000
    312 H         132.2891  187.7569  -30.2533 H        51        0    0.0000
    313 C         131.7135  189.2580  -31.7314 C.3      52        0    0.0000
    314 C         132.7668  189.1514  -32.8397 C.3      52        0    0.0000
    315 H         130.8558  188.6150  -31.9645 H        52        0    0.0000
    316 H         131.3311  190.2846  -31.6735 H        52        0    0.0000
    317 H         133.6548  189.7374  -32.5724 H        52        0    0.0000
    318 H         133.0966  188.1105  -32.9463 H        52        0    0.0000
    319 C         132.2269  189.6545  -34.2228 C.3      53        0    0.0000
    320 C         132.4615  188.6355  -35.3434 C.3      53        0    0.0000
    321 H         131.1551  189.8686  -34.1274 H        53        0    0.0000
    322 H         132.7171  190.6044  -34.4694 H        53        0    0.0000
    323 H         133.5167  188.6427  -35.6435 H        53        0    0.0000
    324 H         132.2435  187.6227  -34.9825 H        53        0    0.0000
    325 C         131.5757  188.9244  -36.6041 C.3      54        0    0.0000
    326 C         132.4170  189.1645  -37.8625 C.3      54        0    0.0000
    327 H         130.8972  188.0768  -36.7612 H        54        0    0.0000
    328 H         130.9454  189.7989  -36.4005 H        54        0    0.0000
    329 H         133.3225  189.7290  -37.6076 H        54        0    0.0000
    330 H         132.7503  188.2065  -38.2805 H        54        0    0.0000
    331 C         131.6260  189.9491  -38.9652 C.3      55        0    0.0000
    332 C         131.3551  189.0919  -40.2065 C.3      55        0    0.0000
    333 H         130.6793  190.3019  -38.5378 H        55        0    0.0000
    334 H         132.1987  190.8427  -39.2429 H        55        0    0.0000
    335 H         132.1805  189.1944  -40.9219 H        55        0    0.0000
    336 H         131.3087  188.0316  -39.9287 H        55        0    0.0000
    337 C         130.0161  189.4862  -40.9201 C.3      56        0    0.0000
    338 C         130.2576  190.2396  -42.2328 C.3      56        0    0.0000
    339 H         129.4354  188.5752  -41.1106 H        56        0    0.0000
    340 H         129.4195  190.1030  -40.2367 H        56        0    0.0000
    341 H         131.1596  189.8566  -42.7259 H        56        0    0.0000
    342 H         129.4234  190.0674  -42.9243 H        56        0    0.0000
    343 C         130.4196  191.7830  -42.0109 C.3      57        0    0.0000
    344 C         129.7265  192.6030  -43.1047 C.3      57        0    0.0000
    345 H         130.0087  192.0439  -41.0278 H        57        0    0.0000
    346 H         131.4891  192.0254  -41.9799 H        57        0    0.0000
    347 H         130.1373  192.3420  -44.0878 H        57        0    0.0000
    348 H         128.6570  192.3606  -43.1357 H        57        0    0.0000
    349 H         129.8391  193.6761  -42.9504 H        57        0    0.0000
    350 H         109.2798  191.7487  -40.4349 H         0        0    0.0000
@<TRIPOS>BOND
     1     1     2      1
     2     1     3      1
     3     1     4      1
     4     1   350      H
     5     2     5      1
     6     2     6      1
     7     2     7      1
     8     7     8      1
     9     7     9      1
    10     7    10      1
    11     8    11      1
    12     8    12      1
    13     8    13      1
    14    13    14      1
    15    13    15      1
    16    13    16      1
    17    14    17      1
    18    14    18      1
    19    14    19      1
    20    19    20      1
    21    19    21      1
    22    19    22      1
    23    20    23      1
    24    20    24      1
    25    20    25      1
    26    25    26      1
    27    25    27      1
    28    25    28      1
    29    26    29      1
    30    26    30      1
    31    26    31      1
    32    31    32      1
    33    31    33      1
    34    31    34      1
    35    32    35      1
    36    32    36      1
    37    32    37      1
    38    37    38      1
    39    37    39      1
    40    37    40      1
    41    38    41      1
    42    38    42      1
    43    38    43      1
    44    43    44      1
    45    43    45      1
    46    43    46      1
    47    44    47      1
    48    44    48      1
    49    44    49      1
    50    49    50      1
    51    49    51      1
    52    49    52      1
    53    50    53      1
    54    50    54      1
    55    50    55      1
    56    55    56      1
    57    55    57      1
    58    55    58      1
    59    56    59      1
    60    56    60      1
    61    56    61      1
    62    61    62      1
    63    61    63      1
    64    61    64      1
    65    62    65      1
    66    62    66      1
    67    62    67      1
    68    67    68      1
    69    67    69      1
    70    67    70      1
    71    68    71      1
    72    68    72      1
    73    68    73      1
    74    73    74      1
    75    73    75      1
    76    73    76      1
    77    74    77      1
    78    74    78      1
    79    74    79      1
    80    79    80      1
    81    79    81      1
    82    79    82      1
    83    80    83      1
    84    80    84      1
    85    80    85      1
    86    85    86      1
    87    85    87      1
    88    85    88      1
    89    86    89      1
    90    86    90      1
    91    86    91      1
    92    91    92      1
    93    91    93      1
    94    91    94      1
    95    92    95      1
    96    92    96      1
    97    92    97      1
    98    97    98      1
    99    97    99      1
   100    97   100      1
   101    98   101      1
   102    98   102      1
   103    98   103      1
   104   103   104      1
   105   103   105      1
   106   103   106      1
   107   104   107      1
   108   104   108      1
   109   104   109      1
   110   109   110      1
   111   109   111      1
   112   109   112      1
   113   110   113      1
   114   110   114      1
   115   110   115      1
   116   115   116      1
   117   115   117      1
   118   115   118      1
   119   116   119      1
   120   116   120      1
   121   116   121      1
   122   121   122      1
   123   121   123      1
   124   121   124      1
   125   122   125      1
   126   122   126      1
   127   122   127      1
   128   127   128      1
   129   127   129      1
   130   127   130      1
   131   128   131      1
   132   128   132      1
   133   128   133      1
   134   133   134      1
   135   133   135      1
   136   133   136      1
   137   134   137      1
   138   134   138      1
   139   134   139      1
   140   139   140      1
   141   139   141      1
   142   139   142      1
   143   140   143      1
   144   140   144      1
   145   140   145      1
   146   145   146      1
   147   145   147      1
   148   145   148      1
   149   146   149      1
   150   146   150      1
   151   146   151      1
   152   151   152      1
   153   151   153      1
   154   151   154      1
   155   152   155      1
   156   152   156      1
   157   152   157      1
   158   157   158      1
   159   157   159      1
   160   157   160      1
   161   158   161      1
   162   158   162      1
   163   158   163      1
   164   163   164      1
   165   163   165      1
   166   163   166      1
   167   164   167      1
   168   164   168      1
   169   164   169      1
   170   169   170      1
   171   169   171      1
   172   169   172      1
   173   170   173      1
   174   170   174      1
   175   170   175      1
   176   175   176      1
   177   175   177      1
   178   175   178      1
   179   176   179      1
   180   176   180      1
   181   176   181      1
   182   181   182      1
   183   181   183      1
   184   181   184      1
   185   182   185      1
   186   182   186      1
   187   182   187      1
   188   187   188      1
   189   187   189      1
   190   187   190      1
   191   188   191      1
   192   188   192      1
   193   188   193      1
   194   193   194      1
   195   193   195      1
   196   193   196      1
   197   194   197      1
   198   194   198      1
   199   194   199      1
   200   199   200      1
   201   199   201      1
   202   199   202      1
   203   200   203      1
   204   200   204      1
   205   200   205      1
   206   205   206      1
   207   205   207      1
   208   205   208      1
   209   206   209      1
   210   206   210      1
   211   206   211      1
   212   211   212      1
   213   211   213      1
   214   211   214      1
   215   212   215      1
   216   212   216      1
   217   212   217      1
   218   217   218      1
   219   217   219      1
   220   217   220      1
   221   218   221      1
   222   218   222      1
   223   218   223      1
   224   223   224      1
   225   223   225      1
   226   223   226      1
   227   224   227      1
   228   224   228      1
   229   224   229      1
   230   229   230      1
   231   229   231      1
   232   229   232      1
   233   230   233      1
   234   230   234      1
   235   230   235      1
   236   235   236      1
   237   235   237      1
   238   235   238      1
   239   236   239      1
   240   236   240      1
   241   236   241      1
   242   241   242      1
   243   241   243      1
   244   241   244      1
   245   242   245      1
   246   242   246      1
   247   242   247      1
   248   247   248      1
   249   247   249      1
   250   247   250      1
   251   248   251      1
   252   248   252      1
   253   248   253      1
   254   253   254      1
   255   253   255      1
   256   253   256      1
   257   254   257      1
   258   254   258      1
   259   254   259      1
   260   259   260      1
   261   259   261      1
   262   259   262      1
   263   260   263      1
   264   260   264      1
   265   260   265      1
   266   265   266      1
   267   265   267      1
   268   265   268      1
   269   266   269      1
   270   266   270      1
   271   266   271      1
   272   271   272      1
   273   271   273      1
   274   271   274      1
   275   272   275      1
   276   272   276      1
   277   272   277      1
   278   277   278      1
   279   277   279      1
   280   277   280      1
   281   278   281      1
   282   278   282      1
   283   278   283      1
   284   283   284      1
   285   283   285      1
   286   283   286      1
   287   284   287      1
   288   284   288      1
   289   284   289      1
   290   289   290      1
   291   289   291      1
   292   289   292      1
   293   290   293      1
   294   290   294      1
   295   290   295      1
   296   295   296      1
   297   295   297      1
   298   295   298      1
   299   296   299      1
   300   296   300      1
   301   296   301      1
   302   301   302      1
   303   301   303      1
   304   301   304      1
   305   302   305      1
   306   302   306      1
   307   302   307      1
   308   307   308      1
   309   307   309      1
   310   307   310      1
   311   308   311      1
   312   308   312      1
   313   308   313      1
   314   313   314      1
   315   313   315      1
   316   313   316      1
   317   314   317      1
   318   314   318      1
   319   314   319      1
   320   319   320      1
   321   319   321      1
   322   319   322      1
   323   320   323      1
   324   320   324      1
   325   320   325      1
   326   325   326      1
   327   325   327      1
   328   325   328      1
   329   326   329      1
   330   326   330      1
   331   326   331      1
   332   331   332      1
   333   331   333      1
   334   331   334      1
   335   332   335      1
   336   332   336      1
   337   332   337      1
   338   337   338      1
   339   337   339      1
   340   337   340      1
   341   338   341      1
   342   338   342      1
   343   338   343      1
   344   343   344      1
   345   343   345      1
   346   343   346      1
   347   344   347      1
   348   344   348      1
   349   344   349      H
