###
### Created by PolyChef-cpp17 on Thu Feb 27 19:40:28 2025
###

@<TRIPOS>MOLECULE
NO_INFO
296 295 1 0 0
SMALL
USER_CHARGES


@<TRIPOS>ATOM
      1 C         109.2798  122.4687  -39.3449 C.3       0        0    0.0000
      2 C         107.8706  122.3082  -38.7641 C.3       0        0    0.0000
      3 H         109.9271  121.6566  -38.9913 H         0        0    0.0000
      4 H         109.7280  123.4055  -38.9913 H         0        0    0.0000
      5 H         107.3720  123.2840  -38.7114 H         0        0    0.0000
      6 H         107.2612  121.6783  -39.4240 H         0        0    0.0000
      7 C         107.8873  121.6714  -37.3317 C.3       1        0    0.0000
      8 C         109.1651  122.0150  -36.5582 C.3       1        0    0.0000
      9 H         107.0071  122.0218  -36.7786 H         1        0    0.0000
     10 H         107.7867  120.5832  -37.4273 H         1        0    0.0000
     11 H         110.0454  121.8394  -37.1890 H         1        0    0.0000
     12 H         109.1719  123.0806  -36.2975 H         1        0    0.0000
     13 C         109.3088  121.1724  -35.2441 C.3       2        0    0.0000
     14 C         110.2044  121.8605  -34.2080 C.3       2        0    0.0000
     15 H         108.3104  121.0004  -34.8234 H         2        0    0.0000
     16 H         109.7173  120.1867  -35.4991 H         2        0    0.0000
     17 H         111.2594  121.7404  -34.4837 H         2        0    0.0000
     18 H         110.0032  122.9388  -34.1938 H         2        0    0.0000
     19 C         109.9911  121.2876  -32.7644 C.3       3        0    0.0000
     20 C         110.6177  122.1797  -31.6871 C.3       3        0    0.0000
     21 H         108.9147  121.1782  -32.5829 H         3        0    0.0000
     22 H         110.4227  120.2802  -32.7164 H         3        0    0.0000
     23 H         111.7066  122.2157  -31.8151 H         3        0    0.0000
     24 H         110.2538  123.2092  -31.7928 H         3        0    0.0000
     25 C         110.2956  121.6763  -30.2378 C.3       4        0    0.0000
     26 C         110.8918  122.5886  -29.1602 C.3       4        0    0.0000
     27 H         109.2068  121.6149  -30.1186 H         4        0    0.0000
     28 H         110.6830  120.6563  -30.1236 H         4        0    0.0000
     29 H         111.9813  122.6447  -29.2754 H         4        0    0.0000
     30 H         110.5095  123.6101  -29.2785 H         4        0    0.0000
     31 C         110.5619  122.0903  -27.7109 C.3       5        0    0.0000
     32 C         111.1608  123.0008  -26.6333 C.3       5        0    0.0000
     33 H         109.4723  122.0366  -27.5949 H         5        0    0.0000
     34 H         110.9420  121.0680  -27.5934 H         5        0    0.0000
     35 H         112.2501  123.0571  -26.7512 H         5        0    0.0000
     36 H         110.7783  124.0225  -26.7489 H         5        0    0.0000
     37 C         110.8347  122.5002  -25.1840 C.3       6        0    0.0000
     38 C         111.3860  123.4407  -24.1067 C.3       6        0    0.0000
     39 H         109.7468  122.4049  -25.0793 H         6        0    0.0000
     40 H         111.2529  121.4942  -25.0549 H         6        0    0.0000
     41 H         112.4748  123.5299  -24.2066 H         6        0    0.0000
     42 H         110.9737  124.4485  -24.2405 H         6        0    0.0000
     43 C         111.0504  122.9457  -22.6576 C.3       7        0    0.0000
     44 C         112.1593  123.2865  -21.6560 C.3       7        0    0.0000
     45 H         110.1036  123.3994  -22.3394 H         7        0    0.0000
     46 H         110.8870  121.8612  -22.6833 H         7        0    0.0000
     47 H         113.1298  122.9486  -22.0400 H         7        0    0.0000
     48 H         112.2315  124.3739  -21.5304 H         7        0    0.0000
     49 C         111.9149  122.6309  -20.2532 C.3       8        0    0.0000
     50 C         111.9469  123.6598  -19.1177 C.3       8        0    0.0000
     51 H         110.9461  122.1163  -20.2673 H         8        0    0.0000
     52 H         112.6781  121.8610  -20.0849 H         8        0    0.0000
     53 H         112.9849  123.8823  -18.8409 H         8        0    0.0000
     54 H         111.5009  124.6043  -19.4532 H         8        0    0.0000
     55 C         111.1798  123.1630  -17.8440 C.3       9        0    0.0000
     56 C         112.0348  123.2611  -16.5758 C.3       9        0    0.0000
     57 H         110.2651  123.7574  -17.7279 H         9        0    0.0000
     58 H         110.8627  122.1251  -18.0046 H         9        0    0.0000
     59 H         113.0520  122.9042  -16.7795 H         9        0    0.0000
     60 H         112.1252  124.3087  -16.2632 H         9        0    0.0000
     61 C         111.4356  122.4297  -15.3896 C.3      10        0    0.0000
     62 C         111.7621  123.0463  -14.0249 C.3      10        0    0.0000
     63 H         110.3486  122.3597  -15.5204 H        10        0    0.0000
     64 H         111.8259  121.4057  -15.4428 H        10        0    0.0000
     65 H         112.8413  122.9911  -13.8358 H        10        0    0.0000
     66 H         111.4953  124.1104  -14.0194 H        10        0    0.0000
     67 C         111.0064  122.3298  -12.8532 C.3      11        0    0.0000
     68 C         111.4826  122.8075  -11.4769 C.3      11        0    0.0000
     69 H         109.9302  122.5118  -12.9629 H        11        0    0.0000
     70 H         111.1540  121.2467  -12.9472 H        11        0    0.0000
     71 H         112.5659  122.6626  -11.3825 H        11        0    0.0000
     72 H         111.2980  123.8834  -11.3676 H        11        0    0.0000
     73 C         110.7675  122.0506  -10.3051 C.3      12        0    0.0000
     74 C         111.2364  122.5352   -8.9288 C.3      12        0    0.0000
     75 H         109.6837  122.1895  -10.4037 H        12        0    0.0000
     76 H         110.9581  120.9753  -10.4103 H        12        0    0.0000
     77 H         112.3196  122.3928   -8.8288 H        12        0    0.0000
     78 H         111.0492  123.6112   -8.8250 H        12        0    0.0000
     79 C         110.5174  121.7820   -7.7570 C.3      13        0    0.0000
     80 C         110.9946  122.2587   -6.3807 C.3      13        0    0.0000
     81 H         109.4348  121.9313   -7.8522 H        13        0    0.0000
     82 H         110.6977  120.7053   -7.8654 H        13        0    0.0000
     83 H         112.0787  122.1177   -6.2889 H        13        0    0.0000
     84 H         110.8061  123.3336   -6.2688 H        13        0    0.0000
     85 C         110.2849  121.4965   -5.2090 C.3      14        0    0.0000
     86 C         110.8016  121.9344   -3.8341 C.3      14        0    0.0000
     87 H         109.2039  121.6706   -5.2775 H        14        0    0.0000
     88 H         110.4396  120.4188   -5.3433 H        14        0    0.0000
     89 H         111.8885  121.7965   -3.7794 H        14        0    0.0000
     90 H         110.6118  123.0045   -3.6843 H        14        0    0.0000
     91 C         110.1311  121.1337   -2.6649 C.3      15        0    0.0000
     92 C         110.5776  121.6348   -1.2870 C.3      15        0    0.0000
     93 H         109.0412  121.2154   -2.7599 H        15        0    0.0000
     94 H         110.3784  120.0708   -2.7769 H        15        0    0.0000
     95 H         111.6274  121.3687   -1.1120 H        15        0    0.0000
     96 H         110.5193  122.7296   -1.2479 H        15        0    0.0000
     97 C         109.7057  121.0406   -0.1276 C.3      16        0    0.0000
     98 C         110.0097  121.6977    1.2232 C.3      16        0    0.0000
     99 H         108.6459  121.1713   -0.3795 H        16        0    0.0000
    100 H         109.8845  119.9598   -0.0689 H        16        0    0.0000
    101 H         111.0433  121.4829    1.5218 H        16        0    0.0000
    102 H         109.9266  122.7883    1.1382 H        16        0    0.0000
    103 C         109.0438  121.2040    2.3549 C.3      17        0    0.0000
    104 C         109.2741  121.9422    3.6781 C.3      17        0    0.0000
    105 H         108.0080  121.3437    2.0215 H        17        0    0.0000
    106 H         109.1865  120.1255    2.4960 H        17        0    0.0000
    107 H         110.2966  121.7658    4.0343 H        17        0    0.0000
    108 H         109.1754  123.0244    3.5273 H        17        0    0.0000
    109 C         108.2665  121.4934    4.7920 C.3      18        0    0.0000
    110 C         108.3460  122.3809    6.0390 C.3      18        0    0.0000
    111 H         107.2503  121.5149    4.3791 H        18        0    0.0000
    112 H         108.4761  120.4501    5.0589 H        18        0    0.0000
    113 H         109.3414  122.3029    6.4935 H        18        0    0.0000
    114 H         108.2081  123.4332    5.7611 H        18        0    0.0000
    115 C         107.2693  121.9964    7.1115 C.3      19        0    0.0000
    116 C         106.6903  123.2259    7.8202 C.3      19        0    0.0000
    117 H         106.4665  121.4326    6.6204 H        19        0    0.0000
    118 H         107.7262  121.3201    7.8446 H        19        0    0.0000
    119 H         107.4341  123.6495    8.5064 H        19        0    0.0000
    120 H         106.4571  124.0077    7.0868 H        19        0    0.0000
    121 C         105.3908  122.8882    8.6293 C.3      20        0    0.0000
    122 C         104.3097  123.9624    8.4666 C.3      20        0    0.0000
    123 H         105.0085  121.9160    8.2946 H        20        0    0.0000
    124 H         105.6530  122.7758    9.6886 H        20        0    0.0000
    125 H         104.5236  124.8139    9.1244 H        20        0    0.0000
    126 H         104.3146  124.3484    7.4398 H        20        0    0.0000
    127 C         102.8769  123.4177    8.7949 C.3      21        0    0.0000
    128 C         102.1249  124.3184    9.7810 C.3      21        0    0.0000
    129 H         102.3100  123.3278    7.8600 H        21        0    0.0000
    130 H         102.9693  122.4047    9.2060 H        21        0    0.0000
    131 H         102.7898  124.6152   10.6016 H        21        0    0.0000
    132 H         101.8096  125.2426    9.2810 H        21        0    0.0000
    133 C         100.8611  123.6138   10.3843 C.3      22        0    0.0000
    134 C          99.5670  124.3711   10.0669 C.3      22        0    0.0000
    135 H         100.8048  122.5913    9.9908 H        22        0    0.0000
    136 H         100.9894  123.5269   11.4703 H        22        0    0.0000
    137 H          99.2914  125.0152   10.9110 H        22        0    0.0000
    138 H          99.7192  125.0309    9.2037 H        22        0    0.0000
    139 C          98.3728  123.4034    9.7587 C.3      23        0    0.0000
    140 C          97.1628  124.1414    9.1754 C.3      23        0    0.0000
    141 H          98.7152  122.6307    9.0592 H        23        0    0.0000
    142 H          98.0883  122.8870   10.6839 H        23        0    0.0000
    143 H          96.7819  124.8713    9.9005 H        23        0    0.0000
    144 H          97.4614  124.7084    8.2849 H        23        0    0.0000
    145 C          96.0015  123.1632    8.7856 C.3      24        0    0.0000
    146 C          95.1173  123.7273    7.6680 C.3      24        0    0.0000
    147 H          96.4358  122.2050    8.4742 H        24        0    0.0000
    148 H          95.3962  122.9596    9.6776 H        24        0    0.0000
    149 H          94.5559  124.5956    8.0346 H        24        0    0.0000
    150 H          95.7408  124.0828    6.8383 H        24        0    0.0000
    151 C          94.1034  122.6651    7.1192 C.3      25        0    0.0000
    152 C          93.4713  123.0972    5.7915 C.3      25        0    0.0000
    153 H          94.6265  121.7090    6.9932 H        25        0    0.0000
    154 H          93.3223  122.5001    7.8716 H        25        0    0.0000
    155 H          92.8565  123.9933    5.9416 H        25        0    0.0000
    156 H          94.2544  123.3692    5.0729 H        25        0    0.0000
    157 C          92.5789  121.9714    5.1641 C.3      26        0    0.0000
    158 C          92.0542  122.3523    3.7754 C.3      26        0    0.0000
    159 H          93.1665  121.0469    5.1037 H        26        0    0.0000
    160 H          91.7395  121.7675    5.8404 H        26        0    0.0000
    161 H          91.4199  123.2448    3.8447 H        26        0    0.0000
    162 H          92.8912  122.6112    3.1150 H        26        0    0.0000
    163 C          91.2283  121.1954    3.1144 C.3      27        0    0.0000
    164 C          90.7880  121.5383    1.6869 C.3      27        0    0.0000
    165 H          91.8376  120.2831    3.1112 H        27        0    0.0000
    166 H          90.3508  120.9861    3.7387 H        27        0    0.0000
    167 H          89.9756  122.2752    1.7107 H        27        0    0.0000
    168 H          91.6175  122.0015    1.1384 H        27        0    0.0000
    169 C          90.3017  120.2754    0.8957 C.3      28        0    0.0000
    170 C          89.9122  120.6092   -0.5486 C.3      28        0    0.0000
    171 H          91.0998  119.5228    0.9058 H        28        0    0.0000
    172 H          89.4467  119.8349    1.4236 H        28        0    0.0000
    173 H          89.6224  119.6948   -1.0810 H        28        0    0.0000
    174 H          89.0370  121.2706   -0.5589 H        28        0    0.0000
    175 C          91.0788  121.3026   -1.3333 C.3      29        0    0.0000
    176 C          90.7318  121.5298   -2.8087 C.3      29        0    0.0000
    177 H          91.3105  122.2596   -0.8496 H        29        0    0.0000
    178 H          91.9792  120.6814   -1.2500 H        29        0    0.0000
    179 H          89.9356  122.2794   -2.8968 H        29        0    0.0000
    180 H          91.6023  121.9308   -3.3425 H        29        0    0.0000
    181 C          90.2662  120.2123   -3.5193 C.3      30        0    0.0000
    182 C          89.9413  120.4349   -5.0005 C.3      30        0    0.0000
    183 H          91.0555  119.4573   -3.4167 H        30        0    0.0000
    184 H          89.3854  119.8205   -2.9957 H        30        0    0.0000
    185 H          89.7659  119.4719   -5.4959 H        30        0    0.0000
    186 H          89.0146  121.0136   -5.0995 H        30        0    0.0000
    187 C          91.0907  121.1888   -5.7541 C.3      31        0    0.0000
    188 C          90.7507  121.4429   -7.2268 C.3      31        0    0.0000
    189 H          91.2840  122.1402   -5.2432 H        31        0    0.0000
    190 H          92.0114  120.5972   -5.6773 H        31        0    0.0000
    191 H          90.0035  122.2421   -7.3079 H        31        0    0.0000
    192 H          91.6421  121.7893   -7.7644 H        31        0    0.0000
    193 C          90.1979  120.1603   -7.9388 C.3      32        0    0.0000
    194 C          89.8858  120.4065   -9.4190 C.3      32        0    0.0000
    195 H          90.9357  119.3546   -7.8388 H        32        0    0.0000
    196 H          89.2940  119.8266   -7.4142 H        32        0    0.0000
    197 H          89.6415  119.4588   -9.9146 H        32        0    0.0000
    198 H          89.0020  121.0493   -9.5152 H        32        0    0.0000
    199 C          91.0838  121.0780  -10.1750 C.3      33        0    0.0000
    200 C          90.7539  121.3696  -11.6431 C.3      33        0    0.0000
    201 H          91.3517  122.0077   -9.6578 H        33        0    0.0000
    202 H          91.9576  120.4180  -10.1097 H        33        0    0.0000
    203 H          90.0788  122.2315  -11.7129 H        33        0    0.0000
    204 H          91.6673  121.6400  -12.1873 H        33        0    0.0000
    205 C          90.0848  120.1444  -12.3563 C.3      34        0    0.0000
    206 C          89.7988  120.4193  -13.8367 C.3      34        0    0.0000
    207 H          90.7442  119.2734  -12.2560 H        34        0    0.0000
    208 H          89.1531  119.8962  -11.8329 H        34        0    0.0000
    209 H          89.4563  119.5014  -14.3304 H        34        0    0.0000
    210 H          88.9869  121.1507  -13.9335 H        34        0    0.0000
    211 C          91.0596  120.9605  -14.5949 C.3      35        0    0.0000
    212 C          90.7595  121.2868  -16.0620 C.3      35        0    0.0000
    213 H          91.4258  121.8561  -14.0777 H        35        0    0.0000
    214 H          91.8587  120.2115  -14.5320 H        35        0    0.0000
    215 H          90.1832  122.2178  -16.1301 H        35        0    0.0000
    216 H          91.6954  121.4549  -16.6091 H        35        0    0.0000
    217 C          89.9572  120.1429  -16.7729 C.3      36        0    0.0000
    218 C          89.7037  120.4451  -18.2540 C.3      36        0    0.0000
    219 H          90.5148  119.2037  -16.6707 H        36        0    0.0000
    220 H          89.0036  120.0017  -16.2492 H        36        0    0.0000
    221 H          89.2568  119.5717  -18.7449 H        36        0    0.0000
    222 H          88.9819  121.2654  -18.3524 H        36        0    0.0000
    223 C          91.0181  120.8347  -19.0142 C.3      37        0    0.0000
    224 C          90.7558  121.1950  -20.4807 C.3      37        0    0.0000
    225 H          91.4881  121.6805  -18.4973 H        37        0    0.0000
    226 H          91.7235  119.9968  -18.9531 H        37        0    0.0000
    227 H          90.2978  122.1896  -20.5475 H        37        0    0.0000
    228 H          91.7037  121.2471  -21.0306 H        37        0    0.0000
    229 C          89.8173  120.1579  -21.1886 C.3      38        0    0.0000
    230 C          89.6047  120.4842  -22.6710 C.3      38        0    0.0000
    231 H          90.2530  119.1567  -21.0825 H        38        0    0.0000
    232 H          88.8531  120.1390  -20.6656 H        38        0    0.0000
    233 H          89.0481  119.6741  -23.1583 H        38        0    0.0000
    234 H          88.9954  121.3908  -22.7730 H        38        0    0.0000
    235 C          90.9583  120.6967  -23.4326 C.3      39        0    0.0000
    236 C          90.7445  121.0912  -24.8981 C.3      39        0    0.0000
    237 H          91.5373  121.4717  -22.9151 H        39        0    0.0000
    238 H          91.5461  119.7723  -23.3737 H        39        0    0.0000
    239 H          90.4322  122.1408  -24.9634 H        39        0    0.0000
    240 H          91.6881  121.0082  -25.4515 H        39        0    0.0000
    241 C          89.6655  120.1983  -25.6023 C.3      40        0    0.0000
    242 C          89.4973  120.5507  -27.0844 C.3      40        0    0.0000
    243 H          89.9542  119.1452  -25.4965 H        40        0    0.0000
    244 H          88.7100  120.3174  -25.0765 H        40        0    0.0000
    245 H          88.8286  119.8287  -27.5692 H        40        0    0.0000
    246 H          89.0242  121.5354  -27.1855 H        40        0    0.0000
    247 C          90.8649  120.5661  -27.8504 C.3      41        0    0.0000
    248 C          90.7053  120.9862  -29.3157 C.3      41        0    0.0000
    249 H          91.5509  121.2502  -27.3355 H        41        0    0.0000
    250 H          91.3140  119.5668  -27.7923 H        41        0    0.0000
    251 H          90.5471  122.0698  -29.3812 H        41        0    0.0000
    252 H          91.6254  120.7680  -29.8719 H        41        0    0.0000
    253 C          89.5068  120.2573  -30.0155 C.3      42        0    0.0000
    254 C          89.3909  120.6234  -31.4993 C.3      42        0    0.0000
    255 H          89.6384  119.1739  -29.9045 H        42        0    0.0000
    256 H          88.5794  120.5175  -29.4903 H        42        0    0.0000
    257 H          88.6201  120.0079  -31.9794 H        42        0    0.0000
    258 H          89.0715  121.6676  -31.6053 H        42        0    0.0000
    259 C          90.7438  120.4284  -32.2668 C.3      43        0    0.0000
    260 C          90.6525  120.8795  -33.7287 C.3      43        0    0.0000
    261 H          91.5292  120.9917  -31.7476 H        43        0    0.0000
    262 H          91.0294  119.3704  -32.2167 H        43        0    0.0000
    263 H          90.6841  121.9746  -33.7871 H        43        0    0.0000
    264 H          91.5182  120.5089  -34.2915 H        43        0    0.0000
    265 C          89.3426  120.3739  -34.4258 C.3      44        0    0.0000
    266 C          89.2905  120.7538  -35.9097 C.3      44        0    0.0000
    267 H          89.2806  119.2843  -34.3140 H        44        0    0.0000
    268 H          88.4769  120.7943  -33.8992 H        44        0    0.0000
    269 H          88.4180  120.2900  -36.3863 H        44        0    0.0000
    270 H          89.1680  121.8388  -36.0161 H        44        0    0.0000
    271 C          90.5818  120.3130  -36.6815 C.3      45        0    0.0000
    272 C          90.5988  120.8260  -38.1257 C.3      45        0    0.0000
    273 H          91.4611  120.6837  -36.1403 H        45        0    0.0000
    274 H          90.6437  119.2178  -36.6706 H        45        0    0.0000
    275 H          90.9462  121.8662  -38.1513 H        45        0    0.0000
    276 H          91.3090  120.2418  -38.7240 H        45        0    0.0000
    277 C          89.1859  120.7483  -38.8004 C.3      46        0    0.0000
    278 C          89.1754  121.3735  -40.1997 C.3      46        0    0.0000
    279 H          88.8779  119.6968  -38.8559 H        46        0    0.0000
    280 H          88.4579  121.2563  -38.1559 H        46        0    0.0000
    281 H          88.7165  120.6820  -40.9173 H        46        0    0.0000
    282 H          88.5609  122.2824  -40.2010 H        46        0    0.0000
    283 C          90.6162  121.7370  -40.6989 C.3      47        0    0.0000
    284 C          90.5939  122.5284  -42.0113 C.3      47        0    0.0000
    285 H          91.1250  122.3167  -39.9188 H        47        0    0.0000
    286 H          91.1899  120.8109  -40.8279 H        47        0    0.0000
    287 H          90.8762  123.5722  -41.8260 H        47        0    0.0000
    288 H          91.3356  122.1206  -42.7092 H        47        0    0.0000
    289 C          89.1850  122.5003  -42.6981 C.3      48        0    0.0000
    290 C          89.2801  122.6123  -44.2237 C.3      48        0    0.0000
    291 H          88.6747  121.5697  -42.4203 H        48        0    0.0000
    292 H          88.5799  123.3231  -42.2975 H        48        0    0.0000
    293 H          89.7904  123.5429  -44.5014 H        48        0    0.0000
    294 H          89.8852  121.7895  -44.6242 H        48        0    0.0000
    295 H          88.3005  122.5928  -44.7012 H        48        0    0.0000
    296 H         109.2798  122.4687  -40.4349 H         0        0    0.0000
@<TRIPOS>BOND
     1     1     2      1
     2     1     3      1
     3     1     4      1
     4     1   296      H
     5     2     5      1
     6     2     6      1
     7     2     7      1
     8     7     8      1
     9     7     9      1
    10     7    10      1
    11     8    11      1
    12     8    12      1
    13     8    13      1
    14    13    14      1
    15    13    15      1
    16    13    16      1
    17    14    17      1
    18    14    18      1
    19    14    19      1
    20    19    20      1
    21    19    21      1
    22    19    22      1
    23    20    23      1
    24    20    24      1
    25    20    25      1
    26    25    26      1
    27    25    27      1
    28    25    28      1
    29    26    29      1
    30    26    30      1
    31    26    31      1
    32    31    32      1
    33    31    33      1
    34    31    34      1
    35    32    35      1
    36    32    36      1
    37    32    37      1
    38    37    38      1
    39    37    39      1
    40    37    40      1
    41    38    41      1
    42    38    42      1
    43    38    43      1
    44    43    44      1
    45    43    45      1
    46    43    46      1
    47    44    47      1
    48    44    48      1
    49    44    49      1
    50    49    50      1
    51    49    51      1
    52    49    52      1
    53    50    53      1
    54    50    54      1
    55    50    55      1
    56    55    56      1
    57    55    57      1
    58    55    58      1
    59    56    59      1
    60    56    60      1
    61    56    61      1
    62    61    62      1
    63    61    63      1
    64    61    64      1
    65    62    65      1
    66    62    66      1
    67    62    67      1
    68    67    68      1
    69    67    69      1
    70    67    70      1
    71    68    71      1
    72    68    72      1
    73    68    73      1
    74    73    74      1
    75    73    75      1
    76    73    76      1
    77    74    77      1
    78    74    78      1
    79    74    79      1
    80    79    80      1
    81    79    81      1
    82    79    82      1
    83    80    83      1
    84    80    84      1
    85    80    85      1
    86    85    86      1
    87    85    87      1
    88    85    88      1
    89    86    89      1
    90    86    90      1
    91    86    91      1
    92    91    92      1
    93    91    93      1
    94    91    94      1
    95    92    95      1
    96    92    96      1
    97    92    97      1
    98    97    98      1
    99    97    99      1
   100    97   100      1
   101    98   101      1
   102    98   102      1
   103    98   103      1
   104   103   104      1
   105   103   105      1
   106   103   106      1
   107   104   107      1
   108   104   108      1
   109   104   109      1
   110   109   110      1
   111   109   111      1
   112   109   112      1
   113   110   113      1
   114   110   114      1
   115   110   115      1
   116   115   116      1
   117   115   117      1
   118   115   118      1
   119   116   119      1
   120   116   120      1
   121   116   121      1
   122   121   122      1
   123   121   123      1
   124   121   124      1
   125   122   125      1
   126   122   126      1
   127   122   127      1
   128   127   128      1
   129   127   129      1
   130   127   130      1
   131   128   131      1
   132   128   132      1
   133   128   133      1
   134   133   134      1
   135   133   135      1
   136   133   136      1
   137   134   137      1
   138   134   138      1
   139   134   139      1
   140   139   140      1
   141   139   141      1
   142   139   142      1
   143   140   143      1
   144   140   144      1
   145   140   145      1
   146   145   146      1
   147   145   147      1
   148   145   148      1
   149   146   149      1
   150   146   150      1
   151   146   151      1
   152   151   152      1
   153   151   153      1
   154   151   154      1
   155   152   155      1
   156   152   156      1
   157   152   157      1
   158   157   158      1
   159   157   159      1
   160   157   160      1
   161   158   161      1
   162   158   162      1
   163   158   163      1
   164   163   164      1
   165   163   165      1
   166   163   166      1
   167   164   167      1
   168   164   168      1
   169   164   169      1
   170   169   170      1
   171   169   171      1
   172   169   172      1
   173   170   173      1
   174   170   174      1
   175   170   175      1
   176   175   176      1
   177   175   177      1
   178   175   178      1
   179   176   179      1
   180   176   180      1
   181   176   181      1
   182   181   182      1
   183   181   183      1
   184   181   184      1
   185   182   185      1
   186   182   186      1
   187   182   187      1
   188   187   188      1
   189   187   189      1
   190   187   190      1
   191   188   191      1
   192   188   192      1
   193   188   193      1
   194   193   194      1
   195   193   195      1
   196   193   196      1
   197   194   197      1
   198   194   198      1
   199   194   199      1
   200   199   200      1
   201   199   201      1
   202   199   202      1
   203   200   203      1
   204   200   204      1
   205   200   205      1
   206   205   206      1
   207   205   207      1
   208   205   208      1
   209   206   209      1
   210   206   210      1
   211   206   211      1
   212   211   212      1
   213   211   213      1
   214   211   214      1
   215   212   215      1
   216   212   216      1
   217   212   217      1
   218   217   218      1
   219   217   219      1
   220   217   220      1
   221   218   221      1
   222   218   222      1
   223   218   223      1
   224   223   224      1
   225   223   225      1
   226   223   226      1
   227   224   227      1
   228   224   228      1
   229   224   229      1
   230   229   230      1
   231   229   231      1
   232   229   232      1
   233   230   233      1
   234   230   234      1
   235   230   235      1
   236   235   236      1
   237   235   237      1
   238   235   238      1
   239   236   239      1
   240   236   240      1
   241   236   241      1
   242   241   242      1
   243   241   243      1
   244   241   244      1
   245   242   245      1
   246   242   246      1
   247   242   247      1
   248   247   248      1
   249   247   249      1
   250   247   250      1
   251   248   251      1
   252   248   252      1
   253   248   253      1
   254   253   254      1
   255   253   255      1
   256   253   256      1
   257   254   257      1
   258   254   258      1
   259   254   259      1
   260   259   260      1
   261   259   261      1
   262   259   262      1
   263   260   263      1
   264   260   264      1
   265   260   265      1
   266   265   266      1
   267   265   267      1
   268   265   268      1
   269   266   269      1
   270   266   270      1
   271   266   271      1
   272   271   272      1
   273   271   273      1
   274   271   274      1
   275   272   275      1
   276   272   276      1
   277   272   277      1
   278   277   278      1
   279   277   279      1
   280   277   280      1
   281   278   281      1
   282   278   282      1
   283   278   283      1
   284   283   284      1
   285   283   285      1
   286   283   286      1
   287   284   287      1
   288   284   288      1
   289   284   289      1
   290   289   290      1
   291   289   291      1
   292   289   292      1
   293   290   293      1
   294   290   294      1
   295   290   295      H
