###
### Created by PolyChef-cpp17 on Thu Feb 27 19:40:30 2025
###

@<TRIPOS>MOLECULE
NO_INFO
158 157 1 0 0
SMALL
USER_CHARGES


@<TRIPOS>ATOM
      1 C          29.2798  122.4687  -39.3449 C.3       0        0    0.0000
      2 C          27.8706  122.3082  -38.7641 C.3       0        0    0.0000
      3 H          29.9271  121.6566  -38.9913 H         0        0    0.0000
      4 H          29.7280  123.4055  -38.9913 H         0        0    0.0000
      5 H          27.3723  123.2841  -38.7107 H         0        0    0.0000
      6 H          27.2610  121.6789  -39.4244 H         0        0    0.0000
      7 C          27.8873  121.6704  -37.3322 C.3       1        0    0.0000
      8 C          29.1646  122.0142  -36.5580 C.3       1        0    0.0000
      9 H          27.0067  122.0200  -36.7791 H         1        0    0.0000
     10 H          27.7872  120.5822  -37.4286 H         1        0    0.0000
     11 H          30.0451  121.8397  -37.1887 H         1        0    0.0000
     12 H          29.1707  123.0796  -36.2964 H         1        0    0.0000
     13 C          29.3085  121.1706  -35.2446 C.3       2        0    0.0000
     14 C          30.2033  121.8584  -34.2076 C.3       2        0    0.0000
     15 H          28.3101  120.9975  -34.8243 H         2        0    0.0000
     16 H          29.7178  120.1854  -35.5003 H         2        0    0.0000
     17 H          31.2584  121.7412  -34.4843 H         2        0    0.0000
     18 H          29.9998  122.9363  -34.1910 H         2        0    0.0000
     19 C          29.9921  121.2821  -32.7651 C.3       3        0    0.0000
     20 C          30.6122  122.1763  -31.6859 C.3       3        0    0.0000
     21 H          28.9162  121.1659  -32.5848 H         3        0    0.0000
     22 H          30.4298  120.2772  -32.7182 H         3        0    0.0000
     23 H          31.7015  122.2158  -31.8102 H         3        0    0.0000
     24 H          30.2455  123.2047  -31.7930 H         3        0    0.0000
     25 C          30.2869  121.6722  -30.2376 C.3       4        0    0.0000
     26 C          30.8873  122.5797  -29.1582 C.3       4        0    0.0000
     27 H          29.1977  121.6164  -30.1189 H         4        0    0.0000
     28 H          30.6689  120.6500  -30.1248 H         4        0    0.0000
     29 H          31.9768  122.6328  -29.2747 H         4        0    0.0000
     30 H          30.5079  123.6026  -29.2730 H         4        0    0.0000
     31 C          30.5580  122.0782  -27.7099 C.3       5        0    0.0000
     32 C          31.1467  122.9933  -26.6305 C.3       5        0    0.0000
     33 H          29.4686  122.0154  -27.5966 H         5        0    0.0000
     34 H          30.9462  121.0590  -27.5917 H         5        0    0.0000
     35 H          32.2360  123.0562  -26.7438 H         5        0    0.0000
     36 H          30.7582  124.0124  -26.7485 H         5        0    0.0000
     37 C          30.8175  122.4917  -25.1822 C.3       6        0    0.0000
     38 C          31.4068  123.4064  -24.1028 C.3       6        0    0.0000
     39 H          29.7282  122.4292  -25.0686 H         6        0    0.0000
     40 H          31.2056  121.4723  -25.0643 H         6        0    0.0000
     41 H          32.4960  123.4697  -24.2169 H         6        0    0.0000
     42 H          31.0180  124.4255  -24.2200 H         6        0    0.0000
     43 C          31.0789  122.9040  -22.6544 C.3       7        0    0.0000
     44 C          32.1079  123.3856  -21.6257 C.3       7        0    0.0000
     45 H          30.0771  123.2547  -22.3769 H         7        0    0.0000
     46 H          31.0383  121.8078  -22.6611 H         7        0    0.0000
     47 H          33.1198  123.1127  -21.9498 H         7        0    0.0000
     48 H          32.0844  124.4801  -21.5541 H         7        0    0.0000
     49 C          31.8528  122.7805  -20.2022 C.3       8        0    0.0000
     50 C          31.7931  123.8590  -19.1149 C.3       8        0    0.0000
     51 H          30.9137  122.2138  -20.2220 H         8        0    0.0000
     52 H          32.6499  122.0616  -19.9756 H         8        0    0.0000
     53 H          32.8079  124.1687  -18.8360 H         8        0    0.0000
     54 H          31.2854  124.7525  -19.4988 H         8        0    0.0000
     55 C          31.0442  123.3655  -17.8291 C.3       9        0    0.0000
     56 C          31.9303  123.4297  -16.5802 C.3       9        0    0.0000
     57 H          30.1464  123.9793  -17.6853 H         9        0    0.0000
     58 H          30.6996  122.3370  -17.9935 H         9        0    0.0000
     59 H          32.9515  123.1136  -16.8269 H         9        0    0.0000
     60 H          31.9988  124.4637  -16.2203 H         9        0    0.0000
     61 C          31.3879  122.5257  -15.4200 C.3      10        0    0.0000
     62 C          31.6631  123.1277  -14.0376 C.3      10        0    0.0000
     63 H          30.3094  122.3808  -15.5592 H        10        0    0.0000
     64 H          31.8516  121.5345  -15.4977 H        10        0    0.0000
     65 H          32.7409  123.1225  -13.8328 H        10        0    0.0000
     66 H          31.3429  124.1767  -14.0135 H        10        0    0.0000
     67 C          30.9277  122.3485  -12.8932 C.3      11        0    0.0000
     68 C          31.3482  122.8293  -11.5000 C.3      11        0    0.0000
     69 H          29.8450  122.4697  -13.0221 H        11        0    0.0000
     70 H          31.1400  121.2776  -13.0015 H        11        0    0.0000
     71 H          32.4360  122.7447  -11.3853 H        11        0    0.0000
     72 H          31.1001  123.8909  -11.3776 H        11        0    0.0000
     73 C          30.6545  122.0131  -10.3554 C.3      12        0    0.0000
     74 C          31.0727  122.4958   -8.9622 C.3      12        0    0.0000
     75 H          29.5667  122.0958  -10.4714 H        12        0    0.0000
     76 H          30.9044  120.9517  -10.4765 H        12        0    0.0000
     77 H          32.1603  122.4120   -8.8458 H        12        0    0.0000
     78 H          30.8238  123.5574   -8.8415 H        12        0    0.0000
     79 C          30.3777  121.6806   -7.8176 C.3      13        0    0.0000
     80 C          30.7915  122.1671   -6.4243 C.3      13        0    0.0000
     81 H          29.2901  121.7610   -7.9364 H        13        0    0.0000
     82 H          30.6300  120.6195   -7.9358 H        13        0    0.0000
     83 H          31.8791  122.0861   -6.3053 H        13        0    0.0000
     84 H          30.5399  123.2283   -6.3063 H        13        0    0.0000
     85 C          30.0959  121.3525   -5.2798 C.3      14        0    0.0000
     86 C          30.5109  121.8380   -3.8865 C.3      14        0    0.0000
     87 H          29.0083  121.4344   -5.3982 H        14        0    0.0000
     88 H          30.3467  120.2911   -5.3984 H        14        0    0.0000
     89 H          31.5971  121.7451   -3.7639 H        14        0    0.0000
     90 H          30.2708  122.9023   -3.7721 H        14        0    0.0000
     91 C          29.8027  121.0343   -2.7420 C.3      15        0    0.0000
     92 C          30.2341  121.5052   -1.3488 C.3      15        0    0.0000
     93 H          28.7166  121.1402   -2.8553 H        15        0    0.0000
     94 H          30.0298  119.9681   -2.8658 H        15        0    0.0000
     95 H          31.3261  121.4552   -1.2562 H        15        0    0.0000
     96 H          29.9534  122.5556   -1.2031 H        15        0    0.0000
     97 C          29.5904  120.6469   -0.2058 C.3      16        0    0.0000
     98 C          30.2718  120.8773    1.1476 C.3      16        0    0.0000
     99 H          28.5236  120.8932   -0.1366 H        16        0    0.0000
    100 H          29.6517  119.5870   -0.4822 H        16        0    0.0000
    101 H          30.8137  121.8311    1.1384 H        16        0    0.0000
    102 H          29.5175  120.9512    1.9408 H        16        0    0.0000
    103 C          31.2756  119.7292    1.5105 C.3      17        0    0.0000
    104 C          31.5897  119.6846    3.0099 C.3      17        0    0.0000
    105 H          30.8495  118.7715    1.1868 H        17        0    0.0000
    106 H          32.1995  119.8729    0.9367 H        17        0    0.0000
    107 H          32.1567  120.5772    3.3022 H        17        0    0.0000
    108 H          30.6586  119.6990    3.5899 H        17        0    0.0000
    109 C          32.4126  118.4108    3.4070 C.3      18        0    0.0000
    110 C          32.7375  118.3725    4.9043 C.3      18        0    0.0000
    111 H          31.8415  117.5182    3.1230 H        18        0    0.0000
    112 H          33.3395  118.3916    2.8204 H        18        0    0.0000
    113 H          33.2931  119.2737    5.1919 H        18        0    0.0000
    114 H          31.8102  118.3736    5.4905 H        18        0    0.0000
    115 C          33.5820  117.1115    5.2970 C.3      19        0    0.0000
    116 C          33.9060  117.0728    6.7945 C.3      19        0    0.0000
    117 H          33.0267  116.2103    5.0088 H        19        0    0.0000
    118 H          34.5096  117.1107    4.7112 H        19        0    0.0000
    119 H          34.4608  117.9742    7.0827 H        19        0    0.0000
    120 H          32.9784  117.0730    7.3802 H        19        0    0.0000
    121 C          34.7512  115.8121    7.1870 C.3      20        0    0.0000
    122 C          35.0771  115.7746    8.6841 C.3      20        0    0.0000
    123 H          34.1956  114.9107    6.9002 H        20        0    0.0000
    124 H          35.6780  115.8110    6.6001 H        20        0    0.0000
    125 H          35.6330  116.6759    8.9708 H        20        0    0.0000
    126 H          34.1503  115.7760    9.2711 H        20        0    0.0000
    127 C          35.9219  114.5137    9.0767 C.3      21        0    0.0000
    128 C          36.2475  114.4759   10.5739 C.3      21        0    0.0000
    129 H          35.3662  113.6124    8.7898 H        21        0    0.0000
    130 H          36.8489  114.5124    8.4900 H        21        0    0.0000
    131 H          36.8014  115.3783   10.8613 H        21        0    0.0000
    132 H          35.3205  114.4750   11.1606 H        21        0    0.0000
    133 C          37.0949  113.2166   10.9660 C.3      22        0    0.0000
    134 C          37.4206  113.1789   12.4632 C.3      22        0    0.0000
    135 H          36.5410  112.3143   10.6787 H        22        0    0.0000
    136 H          38.0219  113.2175   10.3793 H        22        0    0.0000
    137 H          36.5180  112.9386   13.0386 H        22        0    0.0000
    138 H          38.1472  112.3835   12.6701 H        22        0    0.0000
    139 C          38.0013  114.5405   12.9794 C.3      23        0    0.0000
    140 C          38.0270  114.6181   14.5098 C.3      23        0    0.0000
    141 H          39.0148  114.6671   12.5792 H        23        0    0.0000
    142 H          37.3968  115.3601   12.5713 H        23        0    0.0000
    143 H          38.9521  115.1023   14.8464 H        23        0    0.0000
    144 H          37.1974  115.2396   14.8690 H        23        0    0.0000
    145 C          37.9250  113.2037   15.1782 C.3      24        0    0.0000
    146 C          37.8982  113.2850   16.7084 C.3      24        0    0.0000
    147 H          37.0195  112.7041   14.8121 H        24        0    0.0000
    148 H          38.7759  112.5947   14.8487 H        24        0    0.0000
    149 H          37.9040  112.2759   17.1389 H        24        0    0.0000
    150 H          38.8015  113.7887   17.0743 H        24        0    0.0000
    151 C          36.6402  114.0542   17.2406 C.3      25        0    0.0000
    152 C          35.9247  113.2922   18.3615 C.3      25        0    0.0000
    153 H          36.9551  115.0421   17.5989 H        25        0    0.0000
    154 H          35.9515  114.2272   16.4043 H        25        0    0.0000
    155 H          35.6097  112.3043   18.0033 H        25        0    0.0000
    156 H          36.6133  113.1192   19.1978 H        25        0    0.0000
    157 H          35.0499  113.8270   18.7315 H        25        0    0.0000
    158 H          29.2798  122.4687  -40.4349 H         0        0    0.0000
@<TRIPOS>BOND
     1     1     2      1
     2     1     3      1
     3     1     4      1
     4     1   158      H
     5     2     5      1
     6     2     6      1
     7     2     7      1
     8     7     8      1
     9     7     9      1
    10     7    10      1
    11     8    11      1
    12     8    12      1
    13     8    13      1
    14    13    14      1
    15    13    15      1
    16    13    16      1
    17    14    17      1
    18    14    18      1
    19    14    19      1
    20    19    20      1
    21    19    21      1
    22    19    22      1
    23    20    23      1
    24    20    24      1
    25    20    25      1
    26    25    26      1
    27    25    27      1
    28    25    28      1
    29    26    29      1
    30    26    30      1
    31    26    31      1
    32    31    32      1
    33    31    33      1
    34    31    34      1
    35    32    35      1
    36    32    36      1
    37    32    37      1
    38    37    38      1
    39    37    39      1
    40    37    40      1
    41    38    41      1
    42    38    42      1
    43    38    43      1
    44    43    44      1
    45    43    45      1
    46    43    46      1
    47    44    47      1
    48    44    48      1
    49    44    49      1
    50    49    50      1
    51    49    51      1
    52    49    52      1
    53    50    53      1
    54    50    54      1
    55    50    55      1
    56    55    56      1
    57    55    57      1
    58    55    58      1
    59    56    59      1
    60    56    60      1
    61    56    61      1
    62    61    62      1
    63    61    63      1
    64    61    64      1
    65    62    65      1
    66    62    66      1
    67    62    67      1
    68    67    68      1
    69    67    69      1
    70    67    70      1
    71    68    71      1
    72    68    72      1
    73    68    73      1
    74    73    74      1
    75    73    75      1
    76    73    76      1
    77    74    77      1
    78    74    78      1
    79    74    79      1
    80    79    80      1
    81    79    81      1
    82    79    82      1
    83    80    83      1
    84    80    84      1
    85    80    85      1
    86    85    86      1
    87    85    87      1
    88    85    88      1
    89    86    89      1
    90    86    90      1
    91    86    91      1
    92    91    92      1
    93    91    93      1
    94    91    94      1
    95    92    95      1
    96    92    96      1
    97    92    97      1
    98    97    98      1
    99    97    99      1
   100    97   100      1
   101    98   101      1
   102    98   102      1
   103    98   103      1
   104   103   104      1
   105   103   105      1
   106   103   106      1
   107   104   107      1
   108   104   108      1
   109   104   109      1
   110   109   110      1
   111   109   111      1
   112   109   112      1
   113   110   113      1
   114   110   114      1
   115   110   115      1
   116   115   116      1
   117   115   117      1
   118   115   118      1
   119   116   119      1
   120   116   120      1
   121   116   121      1
   122   121   122      1
   123   121   123      1
   124   121   124      1
   125   122   125      1
   126   122   126      1
   127   122   127      1
   128   127   128      1
   129   127   129      1
   130   127   130      1
   131   128   131      1
   132   128   132      1
   133   128   133      1
   134   133   134      1
   135   133   135      1
   136   133   136      1
   137   134   137      1
   138   134   138      1
   139   134   139      1
   140   139   140      1
   141   139   141      1
   142   139   142      1
   143   140   143      1
   144   140   144      1
   145   140   145      1
   146   145   146      1
   147   145   147      1
   148   145   148      1
   149   146   149      1
   150   146   150      1
   151   146   151      1
   152   151   152      1
   153   151   153      1
   154   151   154      1
   155   152   155      1
   156   152   156      1
   157   152   157      H
