###
### Created by PolyChef-cpp17 on Thu Feb 27 19:40:28 2025
###

@<TRIPOS>MOLECULE
NO_INFO
296 295 1 0 0
SMALL
USER_CHARGES


@<TRIPOS>ATOM
      1 C         129.2798   53.1887  120.6551 C.3       0        0    0.0000
      2 C         128.4513   52.0375  120.0742 C.3       0        0    0.0000
      3 H         128.8875   54.1502  120.3015 H         0        0    0.0000
      4 H         130.3162   53.1221  120.3014 H         0        0    0.0000
      5 H         128.4074   51.2072  120.7899 H         0        0    0.0000
      6 H         127.4175   52.3647  119.9076 H         0        0    0.0000
      7 C         129.0379   51.5074  118.7206 C.3       1        0    0.0000
      8 C         129.6366   52.6310  117.8673 C.3       1        0    0.0000
      9 H         129.8031   50.7520  118.9385 H         1        0    0.0000
     10 H         128.2409   50.9974  118.1654 H         1        0    0.0000
     11 H         128.9466   53.4831  117.8296 H         1        0    0.0000
     12 H         130.5643   52.9968  118.3244 H         1        0    0.0000
     13 C         129.9446   52.1649  116.4026 C.3       2        0    0.0000
     14 C         129.8885   53.3233  115.4006 C.3       2        0    0.0000
     15 H         130.9366   51.6971  116.3816 H         2        0    0.0000
     16 H         129.2237   51.3878  116.1198 H         2        0    0.0000
     17 H         128.9693   53.9038  115.5477 H         2        0    0.0000
     18 H         130.7261   54.0106  115.5729 H         2        0    0.0000
     19 C         129.9401   52.8266  113.9146 C.3       3        0    0.0000
     20 C         129.8271   53.9804  112.9122 C.3       3        0    0.0000
     21 H         130.8788   52.2813  113.7564 H         3        0    0.0000
     22 H         129.1272   52.1076  113.7538 H         3        0    0.0000
     23 H         128.8940   54.5329  113.0781 H         3        0    0.0000
     24 H         130.6469   54.6932  113.0652 H         3        0    0.0000
     25 C         129.8618   53.4820  111.4263 C.3       4        0    0.0000
     26 C         129.9397   54.6410  110.4265 C.3       4        0    0.0000
     27 H         130.7232   52.8151  111.2970 H         4        0    0.0000
     28 H         128.9653   52.8794  111.2345 H         4        0    0.0000
     29 H         129.0635   55.2920  110.5363 H         4        0    0.0000
     30 H         130.8206   55.2603  110.6364 H         4        0    0.0000
     31 C         130.0153   54.1415  108.9425 C.3       5        0    0.0000
     32 C         128.9979   54.8475  108.0394 C.3       5        0    0.0000
     33 H         131.0319   54.3071  108.5650 H         5        0    0.0000
     34 H         129.8454   53.0578  108.9251 H         5        0    0.0000
     35 H         128.0347   54.9378  108.5567 H         5        0    0.0000
     36 H         129.3345   55.8683  107.8199 H         5        0    0.0000
     37 C         128.7757   54.0869  106.6868 C.3       6        0    0.0000
     38 C         129.1915   54.9259  105.4735 C.3       6        0    0.0000
     39 H         129.3465   53.1502  106.7100 H         6        0    0.0000
     40 H         127.7174   53.8089  106.6072 H         6        0    0.0000
     41 H         128.3509   55.5468  105.1397 H         6        0    0.0000
     42 H         130.0002   55.6132  105.7508 H         6        0    0.0000
     43 C         129.6717   54.0383  104.2739 C.3       7        0    0.0000
     44 C         129.1560   54.5549  102.9262 C.3       7        0    0.0000
     45 H         130.7684   54.0105  104.2714 H         7        0    0.0000
     46 H         129.3309   53.0084  104.4373 H         7        0    0.0000
     47 H         128.0809   54.7640  102.9899 H         7        0    0.0000
     48 H         129.6469   55.5030  102.6739 H         7        0    0.0000
     49 C         129.4039   53.5326  101.7639 C.3       8        0    0.0000
     50 C         129.2526   54.1770  100.3815 C.3       8        0    0.0000
     51 H         130.4101   53.1095  101.8736 H         8        0    0.0000
     52 H         128.6984   52.6991  101.8696 H         8        0    0.0000
     53 H         128.2249   54.5355  100.2440 H         8        0    0.0000
     54 H         129.9057   55.0548  100.3022 H         8        0    0.0000
     55 C         129.6001   53.1820   99.2210 C.3       9        0    0.0000
     56 C         129.3914   53.8077   97.8375 C.3       9        0    0.0000
     57 H         130.6420   52.8573   99.3337 H         9        0    0.0000
     58 H         128.9775   52.2849   99.3260 H         9        0    0.0000
     59 H         128.3533   54.1457   97.7302 H         9        0    0.0000
     60 H         130.0251   54.6964   97.7271 H         9        0    0.0000
     61 C         129.7192   52.8061   96.6770 C.3      10        0    0.0000
     62 C         129.5291   53.4377   95.2935 C.3      10        0    0.0000
     63 H         130.7529   52.4572   96.7924 H        10        0    0.0000
     64 H         129.0757   51.9235   96.7792 H        10        0    0.0000
     65 H         128.4975   53.7936   95.1810 H        10        0    0.0000
     66 H         130.1784   54.3157   95.1884 H        10        0    0.0000
     67 C         129.8464   52.4328   94.1329 C.3      11        0    0.0000
     68 C         129.6544   53.0639   92.7495 C.3      11        0    0.0000
     69 H         130.8784   52.0780   94.2446 H        11        0    0.0000
     70 H         129.1980   51.5542   94.2389 H        11        0    0.0000
     71 H         128.6232   53.4214   92.6389 H        11        0    0.0000
     72 H         130.3050   53.9407   92.6424 H        11        0    0.0000
     73 C         129.9675   52.0576   91.5889 C.3      12        0    0.0000
     74 C         129.7763   52.6889   90.2054 C.3      12        0    0.0000
     75 H         130.9986   51.6997   91.6998 H        12        0    0.0000
     76 H         129.3165   51.1811   91.6956 H        12        0    0.0000
     77 H         128.7456   53.0482   90.0951 H        12        0    0.0000
     78 H         130.4284   53.5647   90.0982 H        12        0    0.0000
     79 C         130.0874   51.6821   89.0448 C.3      13        0    0.0000
     80 C         129.8922   52.3122   87.6614 C.3      13        0    0.0000
     81 H         131.1191   51.3252   89.1534 H        13        0    0.0000
     82 H         129.4376   50.8051   89.1538 H        13        0    0.0000
     83 H         128.8570   52.6571   87.5478 H        13        0    0.0000
     84 H         130.5323   53.1971   87.5573 H        13        0    0.0000
     85 C         130.2215   51.3111   86.5008 C.3      14        0    0.0000
     86 C         130.0276   51.9416   85.1174 C.3      14        0    0.0000
     87 H         131.2564   50.9655   86.6150 H        14        0    0.0000
     88 H         129.5808   50.4267   86.6043 H        14        0    0.0000
     89 H         128.9694   52.1837   84.9593 H        14        0    0.0000
     90 H         130.5800   52.8873   85.0542 H        14        0    0.0000
     91 C         130.5081   50.9976   83.9617 C.3      15        0    0.0000
     92 C         130.3215   51.6313   82.5787 C.3      15        0    0.0000
     93 H         131.5647   50.7508   84.1229 H        15        0    0.0000
     94 H         129.9515   50.0541   84.0213 H        15        0    0.0000
     95 H         129.4777   52.3322   82.5967 H        15        0    0.0000
     96 H         131.2104   52.2153   82.3095 H        15        0    0.0000
     97 C         130.0644   50.5596   81.4639 C.3      16        0    0.0000
     98 C         129.9195   51.1900   80.0744 C.3      16        0    0.0000
     99 H         130.8933   49.8409   81.4664 H        16        0    0.0000
    100 H         129.1581   49.9959   81.7176 H        16        0    0.0000
    101 H         129.0985   51.9176   80.0752 H        16        0    0.0000
    102 H         130.8307   51.7435   79.8156 H        16        0    0.0000
    103 C         129.6453   50.1199   78.9622 C.3      17        0    0.0000
    104 C         129.4863   50.7516   77.5749 C.3      17        0    0.0000
    105 H         130.4715   49.3982   78.9544 H        17        0    0.0000
    106 H         128.7400   49.5594   79.2263 H        17        0    0.0000
    107 H         128.6880   51.5039   77.5934 H        17        0    0.0000
    108 H         130.4074   51.2766   77.2928 H        17        0    0.0000
    109 C         129.1529   49.6882   76.4724 C.3      18        0    0.0000
    110 C         128.9825   50.3215   75.0871 C.3      18        0    0.0000
    111 H         129.9555   48.9406   76.4481 H        18        0    0.0000
    112 H         128.2365   49.1574   76.7587 H        18        0    0.0000
    113 H         128.2122   51.1018   75.1225 H        18        0    0.0000
    114 H         129.9145   50.8125   74.7807 H        18        0    0.0000
    115 C         128.5845   49.2676   73.9970 C.3      19        0    0.0000
    116 C         128.2648   49.9202   72.6476 C.3      19        0    0.0000
    117 H         129.4062   48.5498   73.8824 H        19        0    0.0000
    118 H         127.7172   48.6990   74.3548 H        19        0    0.0000
    119 H         127.4864   50.6829   72.7736 H        19        0    0.0000
    120 H         129.1518   50.4364   72.2598 H        19        0    0.0000
    121 C         127.7817   48.8763   71.5824 C.3      20        0    0.0000
    122 C         126.5319   49.3487   70.8316 C.3      20        0    0.0000
    123 H         128.5984   48.6903   70.8739 H        20        0    0.0000
    124 H         127.5796   47.9236   72.0874 H        20        0    0.0000
    125 H         125.8877   49.9308   71.5022 H        20        0    0.0000
    126 H         126.8170   50.0172   70.0097 H        20        0    0.0000
    127 C         125.7032   48.1535   70.2464 C.3      21        0    0.0000
    128 C         125.8481   48.0360   68.7252 C.3      21        0    0.0000
    129 H         126.0331   47.2249   70.7286 H        21        0    0.0000
    130 H         124.6482   48.2900   70.5144 H        21        0    0.0000
    131 H         125.0027   48.5271   68.2277 H        21        0    0.0000
    132 H         126.7549   48.5561   68.3924 H        21        0    0.0000
    133 C         125.9176   46.5442   68.2485 C.3      22        0    0.0000
    134 C         124.5447   46.0017   67.8361 C.3      22        0    0.0000
    135 H         126.6180   46.4741   67.4070 H        22        0    0.0000
    136 H         126.3357   45.9333   69.0582 H        22        0    0.0000
    137 H         123.7496   46.6121   68.2819 H        22        0    0.0000
    138 H         124.4236   46.0724   66.7481 H        22        0    0.0000
    139 C         124.3404   44.5096   68.2712 C.3      23        0    0.0000
    140 C         122.9507   44.2640   68.8691 C.3      23        0    0.0000
    141 H         124.4942   43.8626   67.3988 H        23        0    0.0000
    142 H         125.1158   44.2446   69.0006 H        23        0    0.0000
    143 H         122.6377   45.1320   69.4625 H        23        0    0.0000
    144 H         122.2113   44.1476   68.0670 H        23        0    0.0000
    145 C         122.9128   42.9889   69.7802 C.3      24        0    0.0000
    146 C         121.7160   42.0849   69.4646 C.3      24        0    0.0000
    147 H         123.8492   42.4326   69.6491 H        24        0    0.0000
    148 H         122.8786   43.3053   70.8300 H        24        0    0.0000
    149 H         120.7898   42.5457   69.8299 H        24        0    0.0000
    150 H         121.6052   41.9729   68.3789 H        24        0    0.0000
    151 C         121.8602   40.6623   70.1072 C.3      25        0    0.0000
    152 C         120.5619   40.1905   70.7710 C.3      25        0    0.0000
    153 H         122.1644   39.9518   69.3287 H        25        0    0.0000
    154 H         122.6720   40.6881   70.8447 H        25        0    0.0000
    155 H         120.0978   41.0188   71.3206 H        25        0    0.0000
    156 H         119.8408   39.8767   70.0061 H        25        0    0.0000
    157 C         120.7998   38.9981   71.7606 C.3      26        0    0.0000
    158 C         119.7330   38.9333   72.8591 C.3      26        0    0.0000
    159 H         120.8093   38.0614   71.1897 H        26        0    0.0000
    160 H         121.7954   39.1040   72.2089 H        26        0    0.0000
    161 H         119.6217   39.9160   73.3339 H        26        0    0.0000
    162 H         118.7583   38.6822   72.4226 H        26        0    0.0000
    163 C         120.0800   37.8753   73.9626 C.3      27        0    0.0000
    164 C         119.1509   37.9768   75.1773 C.3      27        0    0.0000
    165 H         120.0164   36.8721   73.5231 H        27        0    0.0000
    166 H         121.1225   38.0175   74.2734 H        27        0    0.0000
    167 H         119.1742   38.9952   75.5846 H        27        0    0.0000
    168 H         118.1144   37.7818   74.8754 H        27        0    0.0000
    169 C         119.5447   36.9697   76.3122 C.3      28        0    0.0000
    170 C         118.6841   37.1446   77.5684 C.3      28        0    0.0000
    171 H         119.4453   35.9470   75.9276 H        28        0    0.0000
    172 H         120.6041   37.1118   76.5592 H        28        0    0.0000
    173 H         118.7629   38.1746   77.9378 H        28        0    0.0000
    174 H         117.6273   36.9765   77.3267 H        28        0    0.0000
    175 C         119.1023   36.1627   78.7165 C.3      29        0    0.0000
    176 C         118.4895   36.5524   80.0662 C.3      29        0    0.0000
    177 H         118.7934   35.1463   78.4426 H        29        0    0.0000
    178 H         120.1969   36.1502   78.7900 H        29        0    0.0000
    179 H         118.7179   37.6009   80.2943 H        29        0    0.0000
    180 H         117.3964   36.4709   80.0205 H        29        0    0.0000
    181 C         119.0146   35.6542   81.2387 C.3      30        0    0.0000
    182 C         118.7013   36.2530   82.6143 C.3      30        0    0.0000
    183 H         118.5634   34.6581   81.1505 H        30        0    0.0000
    184 H         120.0975   35.5208   81.1243 H        30        0    0.0000
    185 H         119.0644   37.2869   82.6660 H        30        0    0.0000
    186 H         117.6160   36.2922   82.7692 H        30        0    0.0000
    187 C         119.3490   35.4311   83.7816 C.3      31        0    0.0000
    188 C         119.0003   36.0050   85.1593 C.3      31        0    0.0000
    189 H         119.0104   34.3899   83.7111 H        31        0    0.0000
    190 H         120.4372   35.4185   83.6438 H        31        0    0.0000
    191 H         119.3608   37.0381   85.2386 H        31        0    0.0000
    192 H         117.9113   36.0407   85.2873 H        31        0    0.0000
    193 C         119.6190   35.1627   86.3277 C.3      32        0    0.0000
    194 C         119.2379   35.7138   87.7061 C.3      32        0    0.0000
    195 H         119.2815   34.1233   86.2316 H        32        0    0.0000
    196 H         120.7103   35.1511   86.2158 H        32        0    0.0000
    197 H         119.5863   36.7491   87.8068 H        32        0    0.0000
    198 H         118.1463   35.7369   87.8133 H        32        0    0.0000
    199 C         119.8424   34.8613   88.8746 C.3      33        0    0.0000
    200 C         119.4582   35.4103   90.2531 C.3      33        0    0.0000
    201 H         119.4961   33.8254   88.7724 H        33        0    0.0000
    202 H         120.9341   34.8404   88.7689 H        33        0    0.0000
    203 H         119.8060   36.4456   90.3559 H        33        0    0.0000
    204 H         118.3664   35.4328   90.3581 H        33        0    0.0000
    205 C         120.0607   34.5564   91.4216 C.3      34        0    0.0000
    206 C         119.6722   35.1023   92.8000 C.3      34        0    0.0000
    207 H         119.7159   33.5202   91.3165 H        34        0    0.0000
    208 H         121.1527   34.5370   91.3187 H        34        0    0.0000
    209 H         120.0183   36.1380   92.9056 H        34        0    0.0000
    210 H         118.5801   35.1231   92.9023 H        34        0    0.0000
    211 C         120.2729   34.2472   93.9685 C.3      35        0    0.0000
    212 C         119.8893   34.7965   95.3470 C.3      35        0    0.0000
    213 H         119.9234   33.2124   93.8653 H        35        0    0.0000
    214 H         121.3647   34.2229   93.8638 H        35        0    0.0000
    215 H         120.2372   35.8319   95.4495 H        35        0    0.0000
    216 H         118.7975   34.8192   95.4523 H        35        0    0.0000
    217 C         120.4920   33.9428   96.5155 C.3      36        0    0.0000
    218 C         120.1061   34.4905   97.8939 C.3      36        0    0.0000
    219 H         120.1457   32.9071   96.4118 H        36        0    0.0000
    220 H         121.5839   33.9218   96.4113 H        36        0    0.0000
    221 H         120.4501   35.5272   97.9966 H        36        0    0.0000
    222 H         119.0143   34.5091   97.9991 H        36        0    0.0000
    223 C         120.7119   33.6390   99.0624 C.3      37        0    0.0000
    224 C         120.3244   34.1856  100.4409 C.3      37        0    0.0000
    225 H         120.3689   32.6021   98.9589 H        37        0    0.0000
    226 H         121.8038   33.6216   98.9580 H        37        0    0.0000
    227 H         120.6739   35.2200  100.5472 H        37        0    0.0000
    228 H         119.2323   34.2101  100.5425 H        37        0    0.0000
    229 C         120.9215   33.3279  101.6094 C.3      38        0    0.0000
    230 C         120.5363   33.8761  102.9878 C.3      38        0    0.0000
    231 H         120.5703   32.2939  101.5042 H        38        0    0.0000
    232 H         122.0134   33.3018  101.5066 H        38        0    0.0000
    233 H         120.8887   34.9096  103.0936 H        38        0    0.0000
    234 H         119.4443   33.9036  103.0900 H        38        0    0.0000
    235 C         121.1316   33.0172  104.1563 C.3      39        0    0.0000
    236 C         120.7487   33.5670  105.5348 C.3      39        0    0.0000
    237 H         120.7775   31.9841  104.0518 H        39        0    0.0000
    238 H         122.2234   32.9879  104.0530 H        39        0    0.0000
    239 H         119.6862   33.3791  105.7329 H        39        0    0.0000
    240 H         121.3124   33.0449  106.3178 H        39        0    0.0000
    241 C         121.0210   35.1060  105.6571 C.3      40        0    0.0000
    242 C         120.5503   35.6742  107.0005 C.3      40        0    0.0000
    243 H         122.0954   35.2864  105.5281 H        40        0    0.0000
    244 H         120.5137   35.6215  104.8322 H        40        0    0.0000
    245 H         121.3627   36.2376  107.4760 H        40        0    0.0000
    246 H         119.7270   36.3817  106.8420 H        40        0    0.0000
    247 C         120.0701   34.5523  107.9845 C.3      41        0    0.0000
    248 C         120.0549   35.0257  109.4422 C.3      41        0    0.0000
    249 H         119.0669   34.2248  107.6849 H        41        0    0.0000
    250 H         120.7303   33.6825  107.8784 H        41        0    0.0000
    251 H         120.9536   35.6179  109.6547 H        41        0    0.0000
    252 H         119.1951   35.6849  109.6146 H        41        0    0.0000
    253 C         119.9863   33.8306  110.4543 C.3      42        0    0.0000
    254 C         119.9868   34.3033  111.9122 C.3      42        0    0.0000
    255 H         119.0816   33.2449  110.2491 H        42        0    0.0000
    256 H         120.8398   33.1653  110.2743 H        42        0    0.0000
    257 H         120.8460   34.9608  112.0942 H        42        0    0.0000
    258 H         119.0870   34.8973  112.1154 H        42        0    0.0000
    259 C         120.0422   33.1076  112.9245 C.3      43        0    0.0000
    260 C         120.0366   33.5802  114.3825 C.3      43        0    0.0000
    261 H         119.1854   32.4479  112.7396 H        43        0    0.0000
    262 H         120.9442   32.5163  112.7242 H        43        0    0.0000
    263 H         119.9162   32.7222  115.0555 H        43        0    0.0000
    264 H         120.9994   34.0432  114.6315 H        43        0    0.0000
    265 C         118.8910   34.6114  114.6684 C.3      44        0    0.0000
    266 C         118.9510   35.1651  116.0963 C.3      44        0    0.0000
    267 H         118.9644   35.4315  113.9435 H        44        0    0.0000
    268 H         117.9241   34.1230  114.4947 H        44        0    0.0000
    269 H         119.1896   36.2357  116.0748 H        44        0    0.0000
    270 H         117.9699   35.0706  116.5779 H        44        0    0.0000
    271 C         120.0187   34.4270  116.9753 C.3      45        0    0.0000
    272 C         119.8843   34.7707  118.4629 C.3      45        0    0.0000
    273 H         119.9113   33.3452  116.8280 H        45        0    0.0000
    274 H         121.0197   34.6960  116.6160 H        45        0    0.0000
    275 H         120.3272   35.7542  118.6632 H        45        0    0.0000
    276 H         118.8248   34.8403  118.7387 H        45        0    0.0000
    277 C         120.5773   33.7076  119.3833 C.3      46        0    0.0000
    278 C         120.4256   34.0407  120.8716 C.3      46        0    0.0000
    279 H         120.1447   32.7217  119.1724 H        46        0    0.0000
    280 H         121.6400   33.6487  119.1174 H        46        0    0.0000
    281 H         119.8963   33.2294  121.3866 H        46        0    0.0000
    282 H         121.4135   34.1206  121.3418 H        46        0    0.0000
    283 C         119.6455   35.3804  121.1040 C.3      47        0    0.0000
    284 C         119.2515   35.5759  122.5722 C.3      47        0    0.0000
    285 H         120.2709   36.2167  120.7678 H        47        0    0.0000
    286 H         118.7497   35.3824  120.4707 H        47        0    0.0000
    287 H         120.1507   35.6708  123.1935 H        47        0    0.0000
    288 H         118.6877   36.5097  122.6893 H        47        0    0.0000
    289 C         118.3835   34.3899  123.1174 C.3      48        0    0.0000
    290 C         117.0855   34.8737  123.7735 C.3      48        0    0.0000
    291 H         118.1547   33.7088  122.2884 H        48        0    0.0000
    292 H         118.9795   33.8182  123.8395 H        48        0    0.0000
    293 H         117.3143   35.5547  124.6025 H        48        0    0.0000
    294 H         116.4895   35.4454  123.0514 H        48        0    0.0000
    295 H         116.4820   34.0490  124.1526 H        48        0    0.0000
    296 H         129.2798   53.1887  121.7450 H         0        0    0.0000
@<TRIPOS>BOND
     1     1     2      1
     2     1     3      1
     3     1     4      1
     4     1   296      H
     5     2     5      1
     6     2     6      1
     7     2     7      1
     8     7     8      1
     9     7     9      1
    10     7    10      1
    11     8    11      1
    12     8    12      1
    13     8    13      1
    14    13    14      1
    15    13    15      1
    16    13    16      1
    17    14    17      1
    18    14    18      1
    19    14    19      1
    20    19    20      1
    21    19    21      1
    22    19    22      1
    23    20    23      1
    24    20    24      1
    25    20    25      1
    26    25    26      1
    27    25    27      1
    28    25    28      1
    29    26    29      1
    30    26    30      1
    31    26    31      1
    32    31    32      1
    33    31    33      1
    34    31    34      1
    35    32    35      1
    36    32    36      1
    37    32    37      1
    38    37    38      1
    39    37    39      1
    40    37    40      1
    41    38    41      1
    42    38    42      1
    43    38    43      1
    44    43    44      1
    45    43    45      1
    46    43    46      1
    47    44    47      1
    48    44    48      1
    49    44    49      1
    50    49    50      1
    51    49    51      1
    52    49    52      1
    53    50    53      1
    54    50    54      1
    55    50    55      1
    56    55    56      1
    57    55    57      1
    58    55    58      1
    59    56    59      1
    60    56    60      1
    61    56    61      1
    62    61    62      1
    63    61    63      1
    64    61    64      1
    65    62    65      1
    66    62    66      1
    67    62    67      1
    68    67    68      1
    69    67    69      1
    70    67    70      1
    71    68    71      1
    72    68    72      1
    73    68    73      1
    74    73    74      1
    75    73    75      1
    76    73    76      1
    77    74    77      1
    78    74    78      1
    79    74    79      1
    80    79    80      1
    81    79    81      1
    82    79    82      1
    83    80    83      1
    84    80    84      1
    85    80    85      1
    86    85    86      1
    87    85    87      1
    88    85    88      1
    89    86    89      1
    90    86    90      1
    91    86    91      1
    92    91    92      1
    93    91    93      1
    94    91    94      1
    95    92    95      1
    96    92    96      1
    97    92    97      1
    98    97    98      1
    99    97    99      1
   100    97   100      1
   101    98   101      1
   102    98   102      1
   103    98   103      1
   104   103   104      1
   105   103   105      1
   106   103   106      1
   107   104   107      1
   108   104   108      1
   109   104   109      1
   110   109   110      1
   111   109   111      1
   112   109   112      1
   113   110   113      1
   114   110   114      1
   115   110   115      1
   116   115   116      1
   117   115   117      1
   118   115   118      1
   119   116   119      1
   120   116   120      1
   121   116   121      1
   122   121   122      1
   123   121   123      1
   124   121   124      1
   125   122   125      1
   126   122   126      1
   127   122   127      1
   128   127   128      1
   129   127   129      1
   130   127   130      1
   131   128   131      1
   132   128   132      1
   133   128   133      1
   134   133   134      1
   135   133   135      1
   136   133   136      1
   137   134   137      1
   138   134   138      1
   139   134   139      1
   140   139   140      1
   141   139   141      1
   142   139   142      1
   143   140   143      1
   144   140   144      1
   145   140   145      1
   146   145   146      1
   147   145   147      1
   148   145   148      1
   149   146   149      1
   150   146   150      1
   151   146   151      1
   152   151   152      1
   153   151   153      1
   154   151   154      1
   155   152   155      1
   156   152   156      1
   157   152   157      1
   158   157   158      1
   159   157   159      1
   160   157   160      1
   161   158   161      1
   162   158   162      1
   163   158   163      1
   164   163   164      1
   165   163   165      1
   166   163   166      1
   167   164   167      1
   168   164   168      1
   169   164   169      1
   170   169   170      1
   171   169   171      1
   172   169   172      1
   173   170   173      1
   174   170   174      1
   175   170   175      1
   176   175   176      1
   177   175   177      1
   178   175   178      1
   179   176   179      1
   180   176   180      1
   181   176   181      1
   182   181   182      1
   183   181   183      1
   184   181   184      1
   185   182   185      1
   186   182   186      1
   187   182   187      1
   188   187   188      1
   189   187   189      1
   190   187   190      1
   191   188   191      1
   192   188   192      1
   193   188   193      1
   194   193   194      1
   195   193   195      1
   196   193   196      1
   197   194   197      1
   198   194   198      1
   199   194   199      1
   200   199   200      1
   201   199   201      1
   202   199   202      1
   203   200   203      1
   204   200   204      1
   205   200   205      1
   206   205   206      1
   207   205   207      1
   208   205   208      1
   209   206   209      1
   210   206   210      1
   211   206   211      1
   212   211   212      1
   213   211   213      1
   214   211   214      1
   215   212   215      1
   216   212   216      1
   217   212   217      1
   218   217   218      1
   219   217   219      1
   220   217   220      1
   221   218   221      1
   222   218   222      1
   223   218   223      1
   224   223   224      1
   225   223   225      1
   226   223   226      1
   227   224   227      1
   228   224   228      1
   229   224   229      1
   230   229   230      1
   231   229   231      1
   232   229   232      1
   233   230   233      1
   234   230   234      1
   235   230   235      1
   236   235   236      1
   237   235   237      1
   238   235   238      1
   239   236   239      1
   240   236   240      1
   241   236   241      1
   242   241   242      1
   243   241   243      1
   244   241   244      1
   245   242   245      1
   246   242   246      1
   247   242   247      1
   248   247   248      1
   249   247   249      1
   250   247   250      1
   251   248   251      1
   252   248   252      1
   253   248   253      1
   254   253   254      1
   255   253   255      1
   256   253   256      1
   257   254   257      1
   258   254   258      1
   259   254   259      1
   260   259   260      1
   261   259   261      1
   262   259   262      1
   263   260   263      1
   264   260   264      1
   265   260   265      1
   266   265   266      1
   267   265   267      1
   268   265   268      1
   269   266   269      1
   270   266   270      1
   271   266   271      1
   272   271   272      1
   273   271   273      1
   274   271   274      1
   275   272   275      1
   276   272   276      1
   277   272   277      1
   278   277   278      1
   279   277   279      1
   280   277   280      1
   281   278   281      1
   282   278   282      1
   283   278   283      1
   284   283   284      1
   285   283   285      1
   286   283   286      1
   287   284   287      1
   288   284   288      1
   289   284   289      1
   290   289   290      1
   291   289   291      1
   292   289   292      1
   293   290   293      1
   294   290   294      1
   295   290   295      H
