###
### Created by PolyChef-cpp17 on Thu Feb 27 19:40:30 2025
###

@<TRIPOS>MOLECULE
NO_INFO
524 523 1 0 0
SMALL
USER_CHARGES


@<TRIPOS>ATOM
      1 C         189.2798  191.7487  -39.3449 C.3       0        0    0.0000
      2 C         187.8706  191.5882  -38.7641 C.3       0        0    0.0000
      3 H         189.9271  190.9366  -38.9914 H         0        0    0.0000
      4 H         189.7280  192.6855  -38.9913 H         0        0    0.0000
      5 H         187.3724  192.5642  -38.7104 H         0        0    0.0000
      6 H         187.2609  190.9592  -39.4246 H         0        0    0.0000
      7 C         187.8873  190.9500  -37.3324 C.3       1        0    0.0000
      8 C         189.1648  191.2931  -36.5583 C.3       1        0    0.0000
      9 H         187.0069  191.2996  -36.7791 H         1        0    0.0000
     10 H         187.7868  189.8618  -37.4291 H         1        0    0.0000
     11 H         190.0454  191.1148  -37.1879 H         1        0    0.0000
     12 H         189.1731  192.3592  -36.2997 H         1        0    0.0000
     13 C         189.3060  190.4527  -35.2425 C.3       2        0    0.0000
     14 C         190.2062  191.1387  -34.2090 C.3       2        0    0.0000
     15 H         188.3072  190.2866  -34.8202 H         2        0    0.0000
     16 H         189.7094  189.4644  -35.4957 H         2        0    0.0000
     17 H         191.2602  191.0155  -34.4873 H         2        0    0.0000
     18 H         190.0082  192.2177  -34.1949 H         2        0    0.0000
     19 C         189.9948  190.5674  -32.7646 C.3       3        0    0.0000
     20 C         190.6219  191.4611  -31.6889 C.3       3        0    0.0000
     21 H         188.9187  190.4573  -32.5818 H         3        0    0.0000
     22 H         190.4272  189.5603  -32.7159 H         3        0    0.0000
     23 H         191.7111  191.4945  -31.8156 H         3        0    0.0000
     24 H         190.2604  192.4911  -31.7979 H         3        0    0.0000
     25 C         190.2970  190.9623  -30.2387 C.3       4        0    0.0000
     26 C         190.9059  191.8682  -29.1628 C.3       4        0    0.0000
     27 H         189.2077  190.9138  -30.1172 H         4        0    0.0000
     28 H         190.6726  189.9379  -30.1246 H         4        0    0.0000
     29 H         191.9957  191.9124  -29.2809 H         4        0    0.0000
     30 H         190.5346  192.8939  -29.2803 H         4        0    0.0000
     31 C         190.5745  191.3739  -27.7125 C.3       5        0    0.0000
     32 C         191.1791  192.2828  -26.6367 C.3       5        0    0.0000
     33 H         189.4848  191.3261  -27.5956 H         5        0    0.0000
     34 H         190.9493  190.3497  -27.5938 H         5        0    0.0000
     35 H         192.2687  192.3320  -26.7548 H         5        0    0.0000
     36 H         190.8029  193.3066  -26.7543 H         5        0    0.0000
     37 C         190.8500  191.7869  -25.1864 C.3       6        0    0.0000
     38 C         191.4185  192.7191  -24.1109 C.3       6        0    0.0000
     39 H         189.7611  191.7079  -25.0784 H         6        0    0.0000
     40 H         191.2535  190.7748  -25.0587 H         6        0    0.0000
     41 H         192.5079  192.7950  -24.2164 H         6        0    0.0000
     42 H         191.0181  193.7321  -24.2411 H         6        0    0.0000
     43 C         191.0846  192.2262  -22.6607 C.3       7        0    0.0000
     44 C         192.1882  192.5811  -21.6581 C.3       7        0    0.0000
     45 H         190.1329  192.6722  -22.3460 H         7        0    0.0000
     46 H         190.9315  191.1401  -22.6828 H         7        0    0.0000
     47 H         193.1622  192.2477  -22.0372 H         7        0    0.0000
     48 H         192.2523  193.6698  -21.5389 H         7        0    0.0000
     49 C         191.9444  191.9324  -20.2519 C.3       8        0    0.0000
     50 C         191.9697  192.9678  -19.1223 C.3       8        0    0.0000
     51 H         190.9780  191.4132  -20.2648 H         8        0    0.0000
     52 H         192.7109  191.1670  -20.0779 H         8        0    0.0000
     53 H         193.0060  193.1904  -18.8392 H         8        0    0.0000
     54 H         191.5277  193.9110  -19.4665 H         8        0    0.0000
     55 C         191.1925  192.4797  -17.8514 C.3       9        0    0.0000
     56 C         192.0518  192.5458  -16.5840 C.3       9        0    0.0000
     57 H         190.2931  193.0958  -17.7286 H         9        0    0.0000
     58 H         190.8493  191.4514  -18.0200 H         9        0    0.0000
     59 H         193.0629  192.1763  -16.7953 H         9        0    0.0000
     60 H         192.1591  193.5872  -16.2562 H         9        0    0.0000
     61 C         191.4424  191.7064  -15.4086 C.3      10        0    0.0000
     62 C         191.7773  192.3005  -14.0360 C.3      10        0    0.0000
     63 H         190.3546  191.6521  -15.5398 H        10        0    0.0000
     64 H         191.8195  190.6784  -15.4757 H        10        0    0.0000
     65 H         192.8549  192.2231  -13.8454 H        10        0    0.0000
     66 H         191.5301  193.3692  -14.0183 H        10        0    0.0000
     67 C         191.0060  191.5841  -12.8744 C.3      11        0    0.0000
     68 C         191.4836  192.0410  -11.4916 C.3      11        0    0.0000
     69 H         189.9330  191.7835  -12.9867 H        11        0    0.0000
     70 H         191.1375  190.4999  -12.9785 H        11        0    0.0000
     71 H         192.5640  191.8780  -11.3940 H        11        0    0.0000
     72 H         191.3155  193.1186  -11.3727 H        11        0    0.0000
     73 C         190.7514  191.2843  -10.3302 C.3      12        0    0.0000
     74 C         191.2147  191.7554   -8.9473 C.3      12        0    0.0000
     75 H         189.6700  191.4353  -10.4363 H        12        0    0.0000
     76 H         190.9315  190.2078  -10.4408 H        12        0    0.0000
     77 H         192.2950  191.5984   -8.8388 H        12        0    0.0000
     78 H         191.0405  192.8331   -8.8391 H        12        0    0.0000
     79 C         190.4760  191.0051   -7.7858 C.3      13        0    0.0000
     80 C         190.9422  191.4732   -6.4029 C.3      13        0    0.0000
     81 H         189.3958  191.1645   -7.8926 H        13        0    0.0000
     82 H         190.6477  189.9271   -7.8957 H        13        0    0.0000
     83 H         192.0220  191.3122   -6.2955 H        13        0    0.0000
     84 H         190.7720  192.5515   -6.2937 H        13        0    0.0000
     85 C         190.2017  190.7247   -5.2415 C.3      14        0    0.0000
     86 C         190.6667  191.1940   -3.8586 C.3      14        0    0.0000
     87 H         189.1218  190.8847   -5.3496 H        14        0    0.0000
     88 H         190.3728  189.6465   -5.3500 H        14        0    0.0000
     89 H         191.7483  191.0433   -3.7542 H        14        0    0.0000
     90 H         190.4863  192.2703   -3.7463 H        14        0    0.0000
     91 C         189.9364  190.4355   -2.6972 C.3      15        0    0.0000
     92 C         190.3956  190.9103   -1.3142 C.3      15        0    0.0000
     93 H         188.8544  190.5815   -2.8049 H        15        0    0.0000
     94 H         190.1215  189.3596   -2.8061 H        15        0    0.0000
     95 H         191.4709  190.7301   -1.1925 H        15        0    0.0000
     96 H         190.2450  191.9928   -1.2189 H        15        0    0.0000
     97 C         189.6278  190.1892   -0.1532 C.3      16        0    0.0000
     98 C         189.3413  191.1274    1.0243 C.3      16        0    0.0000
     99 H         188.6881  189.7842   -0.5488 H        16        0    0.0000
    100 H         190.2227  189.3318    0.1851 H        16        0    0.0000
    101 H         190.2355  191.2272    1.6520 H        16        0    0.0000
    102 H         189.1018  192.1323    0.6550 H        16        0    0.0000
    103 C         188.1541  190.6196    1.9133 C.3      17        0    0.0000
    104 C         187.7844  191.6192    3.0148 C.3      17        0    0.0000
    105 H         187.2860  190.4309    1.2697 H        17        0    0.0000
    106 H         188.4322  189.6559    2.3577 H        17        0    0.0000
    107 H         188.6431  191.7831    3.6777 H        17        0    0.0000
    108 H         187.5377  192.5923    2.5724 H        17        0    0.0000
    109 C         186.5677  191.1322    3.8750 C.3      18        0    0.0000
    110 C         186.2026  192.1284    4.9810 C.3      18        0    0.0000
    111 H         185.7075  190.9734    3.2128 H        18        0    0.0000
    112 H         186.8123  190.1566    4.3131 H        18        0    0.0000
    113 H         187.0620  192.2853    5.6446 H        18        0    0.0000
    114 H         185.9603  193.1046    4.5431 H        18        0    0.0000
    115 C         184.9837  191.6430    5.8390 C.3      19        0    0.0000
    116 C         184.6360  192.6259    6.9625 C.3      19        0    0.0000
    117 H         184.1186  191.5055    5.1785 H        19        0    0.0000
    118 H         185.2179  190.6576    6.2605 H        19        0    0.0000
    119 H         185.5022  192.7662    7.6210 H        19        0    0.0000
    120 H         184.3982  193.6104    6.5407 H        19        0    0.0000
    121 C         183.4203  192.1381    7.8236 C.3      20        0    0.0000
    122 C         182.6545  193.3033    8.4599 C.3      20        0    0.0000
    123 H         182.7487  191.5500    7.1860 H        20        0    0.0000
    124 H         183.7887  191.4598    8.6032 H        20        0    0.0000
    125 H         183.2961  193.8269    9.1794 H        20        0    0.0000
    126 H         182.3790  194.0365    7.6917 H        20        0    0.0000
    127 C         181.3537  192.8285    9.1948 C.3      21        0    0.0000
    128 C         181.2877  193.3308   10.6413 C.3      21        0    0.0000
    129 H         180.4807  193.1834    8.6332 H        21        0    0.0000
    130 H         181.3167  191.7323    9.1752 H        21        0    0.0000
    131 H         182.2906  193.3297   11.0861 H        21        0    0.0000
    132 H         180.9345  194.3693   10.6632 H        21        0    0.0000
    133 C         180.3392  192.4557   11.5314 C.3      22        0    0.0000
    134 C         179.1859  193.2708   12.1269 C.3      22        0    0.0000
    135 H         179.9436  191.6327   10.9234 H        22        0    0.0000
    136 H         180.9305  191.9982   12.3344 H        22        0    0.0000
    137 H         179.5399  193.8485   12.9897 H        22        0    0.0000
    138 H         178.8190  193.9967   11.3907 H        22        0    0.0000
    139 C         177.9906  192.3642   12.5817 C.3      23        0    0.0000
    140 C         177.3129  192.8906   13.8516 C.3      23        0    0.0000
    141 H         177.2618  192.3034   11.7640 H        23        0    0.0000
    142 H         178.3628  191.3458   12.7485 H        23        0    0.0000
    143 H         178.0677  193.1150   14.6155 H        23        0    0.0000
    144 H         176.7920  193.8320   13.6374 H        23        0    0.0000
    145 C         176.2837  191.8670   14.4437 C.3      24        0    0.0000
    146 C         175.4465  192.4736   15.5751 C.3      24        0    0.0000
    147 H         175.6281  191.5177   13.6363 H        24        0    0.0000
    148 H         176.8293  190.9882   14.8090 H        24        0    0.0000
    149 H         176.0984  192.7809   16.4023 H        24        0    0.0000
    150 H         174.9372  193.3790   15.2224 H        24        0    0.0000
    151 C         174.3732  191.4711   16.1232 C.3      25        0    0.0000
    152 C         173.5440  192.0736   17.2627 C.3      25        0    0.0000
    153 H         173.7160  191.1706   15.2978 H        25        0    0.0000
    154 H         174.8818  190.5622   16.4679 H        25        0    0.0000
    155 H         174.2016  192.3775   18.0865 H        25        0    0.0000
    156 H         173.0325  192.9804   16.9170 H        25        0    0.0000
    157 C         172.4742  191.0692   17.8144 C.3      26        0    0.0000
    158 C         171.6433  191.6726   18.9522 C.3      26        0    0.0000
    159 H         171.8177  190.7639   16.9902 H        26        0    0.0000
    160 H         172.9859  190.1631   18.1618 H        26        0    0.0000
    161 H         172.2998  191.9778   19.7764 H        26        0    0.0000
    162 H         171.1317  192.5787   18.6047 H        26        0    0.0000
    163 C         170.5734  190.6682   19.5037 C.3      27        0    0.0000
    164 C         169.7442  191.2707   20.6432 C.3      27        0    0.0000
    165 H         169.9158  190.3644   18.6799 H        27        0    0.0000
    166 H         171.0849  189.7613   19.8494 H        27        0    0.0000
    167 H         170.4018  191.5737   21.4675 H        27        0    0.0000
    168 H         169.2336  192.1781   20.2978 H        27        0    0.0000
    169 C         168.6736  190.2668   21.1940 C.3      28        0    0.0000
    170 C         167.8458  190.8686   22.3349 C.3      28        0    0.0000
    171 H         168.0151  189.9650   20.3701 H        28        0    0.0000
    172 H         169.1842  189.3588   21.5380 H        28        0    0.0000
    173 H         168.5042  191.1694   23.1593 H        28        0    0.0000
    174 H         167.3361  191.7772   21.9912 H        28        0    0.0000
    175 C         166.7741  189.8652   22.8847 C.3      29        0    0.0000
    176 C         165.9469  190.4666   24.0262 C.3      29        0    0.0000
    177 H         166.1154  189.5648   22.0605 H        29        0    0.0000
    178 H         167.2838  188.9563   23.2278 H        29        0    0.0000
    179 H         166.6055  190.7650   24.8513 H        29        0    0.0000
    180 H         165.4390  191.3767   23.6836 H        29        0    0.0000
    181 C         164.8731  189.4643   24.5738 C.3      30        0    0.0000
    182 C         164.0477  190.0648   25.7171 C.3      30        0    0.0000
    183 H         164.2133  189.1676   23.7491 H        30        0    0.0000
    184 H         165.3809  188.5535   24.9145 H        30        0    0.0000
    185 H         164.7060  190.3487   26.5475 H        30        0    0.0000
    186 H         163.5512  190.9834   25.3805 H        30        0    0.0000
    187 C         162.9608  189.0696   26.2515 C.3      31        0    0.0000
    188 C         162.1366  189.6694   27.3961 C.3      31        0    0.0000
    189 H         162.3016  188.7868   25.4214 H        31        0    0.0000
    190 H         163.4572  188.1506   26.5868 H        31        0    0.0000
    191 H         162.8031  190.0571   28.1765 H        31        0    0.0000
    192 H         161.5500  190.5215   27.0309 H        31        0    0.0000
    193 C         161.1619  188.6229   28.0381 C.3      32        0    0.0000
    194 C         160.3259  189.2271   29.1718 C.3      32        0    0.0000
    195 H         160.5034  188.2263   27.2554 H        32        0    0.0000
    196 H         161.7497  187.7764   28.4141 H        32        0    0.0000
    197 H         159.5544  188.5153   29.4908 H        32        0    0.0000
    198 H         160.9601  189.4173   30.0466 H        32        0    0.0000
    199 C         159.6326  190.5680   28.7492 C.3      33        0    0.0000
    200 C         158.8806  191.2247   29.9121 C.3      33        0    0.0000
    201 H         160.3958  191.2533   28.3600 H        33        0    0.0000
    202 H         158.9416  190.3634   27.9221 H        33        0    0.0000
    203 H         159.3566  192.1765   30.1783 H        33        0    0.0000
    204 H         157.8525  191.4603   29.6100 H        33        0    0.0000
    205 C         158.8362  190.3089   31.1836 C.3      34        0    0.0000
    206 C         157.7161  190.7102   32.1497 C.3      34        0    0.0000
    207 H         158.7030  189.2676   30.8650 H        34        0    0.0000
    208 H         159.8075  190.3612   31.6911 H        34        0    0.0000
    209 H         158.0275  191.5755   32.7480 H        34        0    0.0000
    210 H         156.8269  191.0199   31.5869 H        34        0    0.0000
    211 C         157.3201  189.5427   33.1180 C.3      35        0    0.0000
    212 C         156.1939  189.9412   34.0782 C.3      35        0    0.0000
    213 H         157.0149  188.6753   32.5197 H        35        0    0.0000
    214 H         158.2079  189.2374   33.6856 H        35        0    0.0000
    215 H         155.8388  189.0606   34.6277 H        35        0    0.0000
    216 H         156.5708  190.6489   34.8270 H        35        0    0.0000
    217 C         154.9800  190.5944   33.3317 C.3      36        0    0.0000
    218 C         153.8383  190.9587   34.2872 C.3      36        0    0.0000
    219 H         155.3298  191.4906   32.8045 H        36        0    0.0000
    220 H         154.6204  189.8977   32.5644 H        36        0    0.0000
    221 H         153.5960  192.0246   34.1946 H        36        0    0.0000
    222 H         152.9307  190.4046   34.0174 H        36        0    0.0000
    223 C         154.1934  190.6493   35.7824 C.3      37        0    0.0000
    224 C         152.9753  190.7671   36.7051 C.3      37        0    0.0000
    225 H         154.6154  189.6385   35.8438 H        37        0    0.0000
    226 H         154.9809  191.3398   36.1091 H        37        0    0.0000
    227 H         152.8265  191.8133   36.9999 H        37        0    0.0000
    228 H         152.0679  190.4581   36.1715 H        37        0    0.0000
    229 C         153.1230  189.8938   37.9985 C.3      38        0    0.0000
    230 C         151.9126  190.0253   38.9295 C.3      38        0    0.0000
    231 H         153.2588  188.8457   37.7039 H        38        0    0.0000
    232 H         154.0372  190.1940   38.5253 H        38        0    0.0000
    233 H         151.0394  189.5338   38.4830 H        38        0    0.0000
    234 H         152.1111  189.5131   39.8791 H        38        0    0.0000
    235 C         151.5526  191.5215   39.2281 C.3      39        0    0.0000
    236 C         150.2654  191.6565   40.0490 C.3      39        0    0.0000
    237 H         152.3901  191.9869   39.7624 H        39        0    0.0000
    238 H         151.4495  192.0571   38.2762 H        39        0    0.0000
    239 H         150.4307  192.3290   40.8999 H        39        0    0.0000
    240 H         149.4753  192.1101   39.4379 H        39        0    0.0000
    241 C         149.7569  190.2751   40.5881 C.3      40        0    0.0000
    242 C         148.5356  190.4223   41.5024 C.3      40        0    0.0000
    243 H         149.5124  189.6308   39.7346 H        40        0    0.0000
    244 H         150.5750  189.7840   41.1294 H        40        0    0.0000
    245 H         148.0430  191.3853   41.3198 H        40        0    0.0000
    246 H         147.7983  189.6428   41.2735 H        40        0    0.0000
    247 C         148.9153  190.3286   43.0205 C.3      41        0    0.0000
    248 C         147.6865  190.4128   43.9327 C.3      41        0    0.0000
    249 H         149.4488  189.3859   43.1940 H        41        0    0.0000
    250 H         149.6176  191.1367   43.2598 H        41        0    0.0000
    251 H         147.9766  190.2208   44.9732 H        41        0    0.0000
    252 H         147.2659  191.4256   43.9047 H        41        0    0.0000
    253 C         146.5708  189.3909   43.5224 C.3      42        0    0.0000
    254 C         145.2543  189.6383   44.2670 C.3      42        0    0.0000
    255 H         146.4092  189.4597   42.4395 H        42        0    0.0000
    256 H         146.9313  188.3743   43.7232 H        42        0    0.0000
    257 H         144.5189  190.0911   43.5905 H        42        0    0.0000
    258 H         144.8277  188.6853   44.6037 H        42        0    0.0000
    259 C         145.4416  190.5752   45.5099 C.3      43        0    0.0000
    260 C         144.1563  190.7115   46.3335 C.3      43        0    0.0000
    261 H         146.2488  190.1750   46.1358 H        43        0    0.0000
    262 H         145.7721  191.5618   45.1623 H        43        0    0.0000
    263 H         144.3003  191.4445   47.1369 H        43        0    0.0000
    264 H         143.3435  191.0916   45.7022 H        43        0    0.0000
    265 C         143.7092  189.3490   46.9669 C.3      44        0    0.0000
    266 C         142.4703  189.5007   47.8563 C.3      44        0    0.0000
    267 H         143.5078  188.6333   46.1602 H        44        0    0.0000
    268 H         144.5432  188.9396   47.5502 H        44        0    0.0000
    269 H         141.5918  189.7325   47.2414 H        44        0    0.0000
    270 H         142.2560  188.5540   48.3676 H        44        0    0.0000
    271 C         142.6456  190.6275   48.9320 C.3      45        0    0.0000
    272 C         141.3457  190.9114   49.6929 C.3      45        0    0.0000
    273 H         143.4340  190.3273   49.6332 H        45        0    0.0000
    274 H         142.9971  191.5398   48.4344 H        45        0    0.0000
    275 H         141.5579  191.0544   50.7597 H        45        0    0.0000
    276 H         140.8957  191.8450   49.3333 H        45        0    0.0000
    277 C         140.3006  189.7535   49.5363 C.3      46        0    0.0000
    278 C         139.0881  189.9373   50.4556 C.3      46        0    0.0000
    279 H         139.9757  189.7097   48.4894 H        46        0    0.0000
    280 H         140.7956  188.7987   49.7528 H        46        0    0.0000
    281 H         138.5223  190.8289   50.1582 H        46        0    0.0000
    282 H         138.4066  189.0835   50.3546 H        46        0    0.0000
    283 C         139.5003  190.0794   51.9614 C.3      47        0    0.0000
    284 C         138.3012  190.3859   52.8654 C.3      47        0    0.0000
    285 H         139.9868  189.1505   52.2840 H        47        0    0.0000
    286 H         140.2506  190.8749   52.0491 H        47        0    0.0000
    287 H         138.5608  190.1914   53.9134 H        47        0    0.0000
    288 H         138.0411  191.4495   52.7975 H        47        0    0.0000
    289 C         137.0409  189.5325   52.4903 C.3      48        0    0.0000
    290 C         135.8399  189.8435   53.3903 C.3      48        0    0.0000
    291 H         136.7840  189.7236   51.4410 H        48        0    0.0000
    292 H         137.2997  188.4689   52.5626 H        48        0    0.0000
    293 H         135.4286  190.8296   53.1413 H        48        0    0.0000
    294 H         135.0392  189.1145   53.2144 H        48        0    0.0000
    295 C         136.2167  189.8228   54.9119 C.3      49        0    0.0000
    296 C         135.0475  190.2508   55.8057 C.3      49        0    0.0000
    297 H         136.5453  188.8113   55.1810 H        49        0    0.0000
    298 H         137.0755  190.4863   55.0726 H        49        0    0.0000
    299 H         135.2707  190.0179   56.8542 H        49        0    0.0000
    300 H         134.9075  191.3374   55.7473 H        49        0    0.0000
    301 C         133.7054  189.5462   55.4062 C.3      50        0    0.0000
    302 C         132.5651  189.8764   56.3756 C.3      50        0    0.0000
    303 H         133.4344  189.8528   54.3883 H        50        0    0.0000
    304 H         133.8707  188.4621   55.3751 H        50        0    0.0000
    305 H         132.2925  190.9355   56.2890 H        50        0    0.0000
    306 H         131.6700  189.2983   56.1144 H        50        0    0.0000
    307 C         132.9455  189.5727   57.8658 C.3      51        0    0.0000
    308 C         131.8835  190.0747   58.8502 C.3      51        0    0.0000
    309 H         133.0846  188.4907   57.9818 H        51        0    0.0000
    310 H         133.9133  190.0401   58.0859 H        51        0    0.0000
    311 H         132.0603  189.6467   59.8448 H        51        0    0.0000
    312 H         131.9559  191.1640   58.9586 H        51        0    0.0000
    313 C         130.4294  189.7079   58.3935 C.3      52        0    0.0000
    314 C         129.3781  190.0872   59.4423 C.3      52        0    0.0000
    315 H         130.2169  190.2186   57.4461 H        52        0    0.0000
    316 H         130.3843  188.6312   58.1880 H        52        0    0.0000
    317 H         129.3169  191.1785   59.5360 H        52        0    0.0000
    318 H         128.3868  189.7422   59.1231 H        52        0    0.0000
    319 C         129.6964  189.4763   60.8505 C.3      53        0    0.0000
    320 C         128.7185  189.9588   61.9275 C.3      53        0    0.0000
    321 H         129.6648  188.3822   60.7767 H        53        0    0.0000
    322 H         130.7236  189.7437   61.1280 H        53        0    0.0000
    323 H         128.7734  189.3041   62.8061 H        53        0    0.0000
    324 H         128.9978  190.9643   62.2660 H        53        0    0.0000
    325 C         127.2378  189.9918   61.4137 C.3      54        0    0.0000
    326 C         126.2455  190.3533   62.5244 C.3      54        0    0.0000
    327 H         127.1643  190.7163   60.5932 H        54        0    0.0000
    328 H         126.9883  189.0107   60.9909 H        54        0    0.0000
    329 H         126.3936  191.3944   62.8369 H        54        0    0.0000
    330 H         125.2174  190.2803   62.1487 H        54        0    0.0000
    331 C         126.3925  189.4236   63.7780 C.3      55        0    0.0000
    332 C         125.4846  189.8589   64.9336 C.3      55        0    0.0000
    333 H         126.1584  188.3931   63.4835 H        55        0    0.0000
    334 H         127.4409  189.4285   64.1009 H        55        0    0.0000
    335 H         125.3947  189.0483   65.6673 H        55        0    0.0000
    336 H         125.9292  190.7126   65.4602 H        55        0    0.0000
    337 C         124.0501  190.2587   64.4440 C.3      56        0    0.0000
    338 C         123.1097  190.5883   65.6085 C.3      56        0    0.0000
    339 H         124.1336  191.1218   63.7720 H        56        0    0.0000
    340 H         123.6373  189.4348   63.8488 H        56        0    0.0000
    341 H         123.4329  191.5129   66.1028 H        56        0    0.0000
    342 H         122.0951  190.7699   65.2329 H        56        0    0.0000
    343 C         123.0563  189.4385   66.6728 C.3      57        0    0.0000
    344 C         122.2307  189.8253   67.9047 C.3      57        0    0.0000
    345 H         122.6339  188.5415   66.2033 H        57        0    0.0000
    346 H         124.0811  189.1850   66.9712 H        57        0    0.0000
    347 H         121.9656  188.9275   68.4769 H        57        0    0.0000
    348 H         122.8262  190.4600   68.5726 H        57        0    0.0000
    349 C         120.9153  190.5878   67.5229 C.3      58        0    0.0000
    350 C         120.0257  190.8575   68.7415 C.3      58        0    0.0000
    351 H         121.1834  191.5336   67.0362 H        58        0    0.0000
    352 H         120.3663  189.9958   66.7801 H        58        0    0.0000
    353 H         119.7160  191.9099   68.7556 H        58        0    0.0000
    354 H         119.1080  190.2599   68.6770 H        58        0    0.0000
    355 C         120.7506  190.5260   70.0913 C.3      59        0    0.0000
    356 C         119.8066  190.6174   71.2953 C.3      59        0    0.0000
    357 H         121.1787  189.5181   70.0246 H        59        0    0.0000
    358 H         121.5923  191.2178   70.2199 H        59        0    0.0000
    359 H         120.3346  190.3222   72.2105 H        59        0    0.0000
    360 H         119.4811  191.6549   71.4402 H        59        0    0.0000
    361 C         118.5400  189.7092   71.1274 C.3      60        0    0.0000
    362 C         117.5295  189.9059   72.2628 C.3      60        0    0.0000
    363 H         118.0695  189.9335   70.1621 H        60        0    0.0000
    364 H         118.8597  188.6605   71.0859 H        60        0    0.0000
    365 H         116.6262  189.3142   72.0692 H        60        0    0.0000
    366 H         117.9495  189.5398   73.2078 H        60        0    0.0000
    367 C         117.1205  191.4088   72.4403 C.3      61        0    0.0000
    368 C         116.1277  191.6087   73.5907 C.3      61        0    0.0000
    369 H         118.0256  192.0031   72.6171 H        61        0    0.0000
    370 H         116.6850  191.7702   71.5005 H        61        0    0.0000
    371 H         116.5572  192.2780   74.3463 H        61        0    0.0000
    372 H         115.2163  192.0946   73.2209 H        61        0    0.0000
    373 C         115.7354  190.2558   74.2786 C.3      62        0    0.0000
    374 C         114.6647  190.4427   75.3593 C.3      62        0    0.0000
    375 H         115.3769  189.5594   73.5105 H        62        0    0.0000
    376 H         116.6361  189.8068   74.7152 H        62        0    0.0000
    377 H         115.1128  190.8768   76.2617 H        62        0    0.0000
    378 H         113.9017  191.1514   75.0143 H        62        0    0.0000
    379 C         113.9647  189.0931   75.7418 C.3      63        0    0.0000
    380 C         112.8984  189.2791   76.8269 C.3      63        0    0.0000
    381 H         113.5127  188.6613   74.8403 H        63        0    0.0000
    382 H         114.7283  188.3829   76.0826 H        63        0    0.0000
    383 H         112.3213  188.3542   76.9495 H        63        0    0.0000
    384 H         113.3764  189.4826   77.7931 H        63        0    0.0000
    385 C         111.9109  190.4505   76.4949 C.3      64        0    0.0000
    386 C         110.9955  190.7909   77.6761 C.3      64        0    0.0000
    387 H         112.4943  191.3331   76.2046 H        64        0    0.0000
    388 H         111.3094  190.1692   75.6217 H        64        0    0.0000
    389 H         111.3073  191.7384   78.1327 H        64        0    0.0000
    390 H         109.9660  190.9340   77.3251 H        64        0    0.0000
    391 C         111.0038  189.6734   78.7755 C.3      65        0    0.0000
    392 C         110.1726  190.0606   80.0036 C.3      65        0    0.0000
    393 H         110.6182  188.7442   78.3380 H        65        0    0.0000
    394 H         112.0417  189.4756   79.0708 H        65        0    0.0000
    395 H         109.1896  190.4335   79.6901 H        65        0    0.0000
    396 H         109.9899  189.1772   80.6279 H        65        0    0.0000
    397 C         110.8753  191.1584   80.8745 C.3      66        0    0.0000
    398 C         110.4246  191.1146   82.3388 C.3      66        0    0.0000
    399 H         111.9615  191.0184   80.8109 H        66        0    0.0000
    400 H         110.6588  192.1438   80.4436 H        66        0    0.0000
    401 H         110.9113  191.9175   82.9062 H        66        0    0.0000
    402 H         109.3441  191.2922   82.4052 H        66        0    0.0000
    403 C         110.7542  189.7422   83.0210 C.3      67        0    0.0000
    404 C         110.3935  189.7327   84.5106 C.3      67        0    0.0000
    405 H         110.2094  188.9471   82.4970 H        67        0    0.0000
    406 H         111.8227  189.5304   82.8913 H        67        0    0.0000
    407 H         109.3041  189.7702   84.6341 H        67        0    0.0000
    408 H         110.7310  188.7970   84.9734 H        67        0    0.0000
    409 C         111.0314  190.9378   85.2840 C.3      68        0    0.0000
    410 C         110.5731  190.9982   86.7453 C.3      68        0    0.0000
    411 H         112.1240  190.8504   85.2358 H        68        0    0.0000
    412 H         110.7669  191.8691   84.7680 H        68        0    0.0000
    413 H         111.2405  191.6503   87.3222 H        68        0    0.0000
    414 H         109.5706  191.4397   86.8071 H        68        0    0.0000
    415 C         110.5442  189.5825   87.4179 C.3      69        0    0.0000
    416 C         110.1791  189.6532   88.9048 C.3      69        0    0.0000
    417 H         109.8233  188.9516   86.8832 H        69        0    0.0000
    418 H         111.5274  189.1120   87.2939 H        69        0    0.0000
    419 H         109.1324  189.9606   89.0209 H        69        0    0.0000
    420 H         110.2682  188.6598   89.3616 H        69        0    0.0000
    421 C         111.0906  190.6556   89.6933 C.3      70        0    0.0000
    422 C         110.6466  190.8211   91.1509 C.3      70        0    0.0000
    423 H         112.1268  190.2973   89.6541 H        70        0    0.0000
    424 H         111.0734  191.6263   89.1823 H        70        0    0.0000
    425 H         111.4512  191.2791   91.7395 H        70        0    0.0000
    426 H         109.7881  191.5018   91.2077 H        70        0    0.0000
    427 C         110.2527  189.4548   91.8107 C.3      71        0    0.0000
    428 C         109.9278  189.6018   93.3013 C.3      71        0    0.0000
    429 H         109.3888  189.0402   91.2766 H        71        0    0.0000
    430 H         111.0779  188.7450   91.6738 H        71        0    0.0000
    431 H         109.0082  190.1861   93.4300 H        71        0    0.0000
    432 H         109.7393  188.6160   93.7443 H        71        0    0.0000
    433 C         111.0852  190.2997   94.0956 C.3      72        0    0.0000
    434 C         110.6964  190.5961   95.5482 C.3      72        0    0.0000
    435 H         111.9722  189.6548   94.0677 H        72        0    0.0000
    436 H         111.3559  191.2302   93.5813 H        72        0    0.0000
    437 H         111.5922  190.8276   96.1376 H        72        0    0.0000
    438 H         110.0525  191.4833   95.5918 H        72        0    0.0000
    439 C         109.9466  189.3941   96.2195 C.3      73        0    0.0000
    440 C         109.6737  189.6381   97.7078 C.3      73        0    0.0000
    441 H         109.0026  189.2243   95.6869 H        73        0    0.0000
    442 H         110.5484  188.4859   96.0913 H        73        0    0.0000
    443 H         108.9460  190.4501   97.8287 H        73        0    0.0000
    444 H         109.2261  188.7442   98.1597 H        73        0    0.0000
    445 C         110.9766  190.0054   98.4983 C.3      74        0    0.0000
    446 C         110.6830  190.4052   99.9485 C.3      74        0    0.0000
    447 H         111.6581  189.1460   98.4757 H        74        0    0.0000
    448 H         111.4866  190.8256   97.9779 H        74        0    0.0000
    449 H         111.6110  190.4068  100.5335 H        74        0    0.0000
    450 H         110.2865  191.4275   99.9839 H        74        0    0.0000
    451 C         109.6550  189.4405  100.6342 C.3      75        0    0.0000
    452 C         109.4634  189.7579  102.1213 C.3      75        0    0.0000
    453 H         108.6956  189.5138  100.1072 H        75        0    0.0000
    454 H         110.0036  188.4075  100.5118 H        75        0    0.0000
    455 H         108.3940  189.8178  102.3584 H        75        0    0.0000
    456 H         109.8773  188.9482  102.7351 H        75        0    0.0000
    457 C         110.1488  191.1059  102.5342 C.3      76        0    0.0000
    458 C         110.1143  191.3349  104.0493 C.3      76        0    0.0000
    459 H         111.1866  191.0984  102.1785 H        76        0    0.0000
    460 H         109.6446  191.9318  102.0173 H        76        0    0.0000
    461 H         110.6552  192.2549  104.3031 H        76        0    0.0000
    462 H         109.0793  191.4751  104.3850 H        76        0    0.0000
    463 C         110.7463  190.1413  104.8451 C.3      77        0    0.0000
    464 C         110.5624  190.2906  106.3593 C.3      77        0    0.0000
    465 H         110.2889  189.2054  104.5011 H        77        0    0.0000
    466 H         111.8138  190.0788  104.6002 H        77        0    0.0000
    467 H         110.9581  189.4070  106.8753 H        77        0    0.0000
    468 H         111.1355  191.1517  106.7247 H        77        0    0.0000
    469 C         109.0583  190.4780  106.7595 C.3      78        0    0.0000
    470 C         108.8722  190.6058  108.2754 C.3      78        0    0.0000
    471 H         108.6670  191.3707  106.2559 H        78        0    0.0000
    472 H         108.4825  189.6246  106.3804 H        78        0    0.0000
    473 H         109.2572  191.5730  108.6216 H        78        0    0.0000
    474 H         107.8044  190.5836  108.5265 H        78        0    0.0000
    475 C         109.6000  189.4615  109.0619 C.3      79        0    0.0000
    476 C         109.7508  189.7860  110.5522 C.3      79        0    0.0000
    477 H         109.0343  188.5302  108.9351 H        79        0    0.0000
    478 H         110.5863  189.2949  108.6115 H        79        0    0.0000
    479 H         108.7623  189.8858  111.0174 H        79        0    0.0000
    480 H         110.2596  188.9616  111.0671 H        79        0    0.0000
    481 C         110.5586  191.1077  110.7936 C.3      80        0    0.0000
    482 C         110.6958  191.4407  112.2834 C.3      80        0    0.0000
    483 H         111.5514  191.0035  110.3385 H        80        0    0.0000
    484 H         110.0563  191.9299  110.2690 H        80        0    0.0000
    485 H         111.3882  190.7382  112.7636 H        80        0    0.0000
    486 H         111.1268  192.4420  112.4068 H        80        0    0.0000
    487 C         109.3203  191.3866  113.0333 C.3      81        0    0.0000
    488 C         109.4895  191.1845  114.5432 C.3      81        0    0.0000
    489 H         108.7738  192.3175  112.8373 H        81        0    0.0000
    490 H         108.7184  190.5730  112.6100 H        81        0    0.0000
    491 H         110.0533  192.0213  114.9738 H        81        0    0.0000
    492 H         108.5085  191.1798  115.0343 H        81        0    0.0000
    493 C         110.2317  189.8465  114.8840 C.3      82        0    0.0000
    494 C         110.3580  189.6208  116.3946 C.3      82        0    0.0000
    495 H         109.6872  189.0128  114.4233 H        82        0    0.0000
    496 H         111.2266  189.8664  114.4221 H        82        0    0.0000
    497 H         109.8232  188.7079  116.6846 H        82        0    0.0000
    498 H         111.4102  189.4691  116.6656 H        82        0    0.0000
    499 C         109.7909  190.8238  117.2245 C.3      83        0    0.0000
    500 C         109.9518  190.6151  118.7344 C.3      83        0    0.0000
    501 H         110.3063  191.7413  116.9146 H        83        0    0.0000
    502 H         108.7313  190.9578  116.9741 H        83        0    0.0000
    503 H         111.0021  190.7469  119.0225 H        83        0    0.0000
    504 H         109.3774  191.3724  119.2821 H        83        0    0.0000
    505 C         109.4771  189.1926  119.1913 C.3      84        0    0.0000
    506 C         109.6055  188.9962  120.7059 C.3      84        0    0.0000
    507 H         108.4346  189.0510  118.8807 H        84        0    0.0000
    508 H         110.0691  188.4354  118.6623 H        84        0    0.0000
    509 H         109.1356  188.0507  121.0038 H        84        0    0.0000
    510 H         110.6633  188.9247  120.9876 H        84        0    0.0000
    511 C         108.9451  190.1655  121.5147 C.3      85        0    0.0000
    512 C         109.5550  190.3222  122.9120 C.3      85        0    0.0000
    513 H         109.0606  191.0973  120.9472 H        85        0    0.0000
    514 H         107.8674  189.9763  121.5937 H        85        0    0.0000
    515 H         108.9807  191.0543  123.4932 H        85        0    0.0000
    516 H         109.4964  189.3717  123.4567 H        85        0    0.0000
    517 C         111.0526  190.7824  122.8584 C.3      86        0    0.0000
    518 C         111.3437  191.9272  123.8350 C.3      86        0    0.0000
    519 H         111.6951  189.9225  123.0846 H        86        0    0.0000
    520 H         111.2907  191.0926  121.8334 H        86        0    0.0000
    521 H         110.7012  192.7872  123.6088 H        86        0    0.0000
    522 H         111.1056  191.6170  124.8600 H        86        0    0.0000
    523 H         112.3850  192.2472  123.7977 H        86        0    0.0000
    524 H         189.2798  191.7487  -40.4349 H         0        0    0.0000
@<TRIPOS>BOND
     1     1     2      1
     2     1     3      1
     3     1     4      1
     4     1   524      H
     5     2     5      1
     6     2     6      1
     7     2     7      1
     8     7     8      1
     9     7     9      1
    10     7    10      1
    11     8    11      1
    12     8    12      1
    13     8    13      1
    14    13    14      1
    15    13    15      1
    16    13    16      1
    17    14    17      1
    18    14    18      1
    19    14    19      1
    20    19    20      1
    21    19    21      1
    22    19    22      1
    23    20    23      1
    24    20    24      1
    25    20    25      1
    26    25    26      1
    27    25    27      1
    28    25    28      1
    29    26    29      1
    30    26    30      1
    31    26    31      1
    32    31    32      1
    33    31    33      1
    34    31    34      1
    35    32    35      1
    36    32    36      1
    37    32    37      1
    38    37    38      1
    39    37    39      1
    40    37    40      1
    41    38    41      1
    42    38    42      1
    43    38    43      1
    44    43    44      1
    45    43    45      1
    46    43    46      1
    47    44    47      1
    48    44    48      1
    49    44    49      1
    50    49    50      1
    51    49    51      1
    52    49    52      1
    53    50    53      1
    54    50    54      1
    55    50    55      1
    56    55    56      1
    57    55    57      1
    58    55    58      1
    59    56    59      1
    60    56    60      1
    61    56    61      1
    62    61    62      1
    63    61    63      1
    64    61    64      1
    65    62    65      1
    66    62    66      1
    67    62    67      1
    68    67    68      1
    69    67    69      1
    70    67    70      1
    71    68    71      1
    72    68    72      1
    73    68    73      1
    74    73    74      1
    75    73    75      1
    76    73    76      1
    77    74    77      1
    78    74    78      1
    79    74    79      1
    80    79    80      1
    81    79    81      1
    82    79    82      1
    83    80    83      1
    84    80    84      1
    85    80    85      1
    86    85    86      1
    87    85    87      1
    88    85    88      1
    89    86    89      1
    90    86    90      1
    91    86    91      1
    92    91    92      1
    93    91    93      1
    94    91    94      1
    95    92    95      1
    96    92    96      1
    97    92    97      1
    98    97    98      1
    99    97    99      1
   100    97   100      1
   101    98   101      1
   102    98   102      1
   103    98   103      1
   104   103   104      1
   105   103   105      1
   106   103   106      1
   107   104   107      1
   108   104   108      1
   109   104   109      1
   110   109   110      1
   111   109   111      1
   112   109   112      1
   113   110   113      1
   114   110   114      1
   115   110   115      1
   116   115   116      1
   117   115   117      1
   118   115   118      1
   119   116   119      1
   120   116   120      1
   121   116   121      1
   122   121   122      1
   123   121   123      1
   124   121   124      1
   125   122   125      1
   126   122   126      1
   127   122   127      1
   128   127   128      1
   129   127   129      1
   130   127   130      1
   131   128   131      1
   132   128   132      1
   133   128   133      1
   134   133   134      1
   135   133   135      1
   136   133   136      1
   137   134   137      1
   138   134   138      1
   139   134   139      1
   140   139   140      1
   141   139   141      1
   142   139   142      1
   143   140   143      1
   144   140   144      1
   145   140   145      1
   146   145   146      1
   147   145   147      1
   148   145   148      1
   149   146   149      1
   150   146   150      1
   151   146   151      1
   152   151   152      1
   153   151   153      1
   154   151   154      1
   155   152   155      1
   156   152   156      1
   157   152   157      1
   158   157   158      1
   159   157   159      1
   160   157   160      1
   161   158   161      1
   162   158   162      1
   163   158   163      1
   164   163   164      1
   165   163   165      1
   166   163   166      1
   167   164   167      1
   168   164   168      1
   169   164   169      1
   170   169   170      1
   171   169   171      1
   172   169   172      1
   173   170   173      1
   174   170   174      1
   175   170   175      1
   176   175   176      1
   177   175   177      1
   178   175   178      1
   179   176   179      1
   180   176   180      1
   181   176   181      1
   182   181   182      1
   183   181   183      1
   184   181   184      1
   185   182   185      1
   186   182   186      1
   187   182   187      1
   188   187   188      1
   189   187   189      1
   190   187   190      1
   191   188   191      1
   192   188   192      1
   193   188   193      1
   194   193   194      1
   195   193   195      1
   196   193   196      1
   197   194   197      1
   198   194   198      1
   199   194   199      1
   200   199   200      1
   201   199   201      1
   202   199   202      1
   203   200   203      1
   204   200   204      1
   205   200   205      1
   206   205   206      1
   207   205   207      1
   208   205   208      1
   209   206   209      1
   210   206   210      1
   211   206   211      1
   212   211   212      1
   213   211   213      1
   214   211   214      1
   215   212   215      1
   216   212   216      1
   217   212   217      1
   218   217   218      1
   219   217   219      1
   220   217   220      1
   221   218   221      1
   222   218   222      1
   223   218   223      1
   224   223   224      1
   225   223   225      1
   226   223   226      1
   227   224   227      1
   228   224   228      1
   229   224   229      1
   230   229   230      1
   231   229   231      1
   232   229   232      1
   233   230   233      1
   234   230   234      1
   235   230   235      1
   236   235   236      1
   237   235   237      1
   238   235   238      1
   239   236   239      1
   240   236   240      1
   241   236   241      1
   242   241   242      1
   243   241   243      1
   244   241   244      1
   245   242   245      1
   246   242   246      1
   247   242   247      1
   248   247   248      1
   249   247   249      1
   250   247   250      1
   251   248   251      1
   252   248   252      1
   253   248   253      1
   254   253   254      1
   255   253   255      1
   256   253   256      1
   257   254   257      1
   258   254   258      1
   259   254   259      1
   260   259   260      1
   261   259   261      1
   262   259   262      1
   263   260   263      1
   264   260   264      1
   265   260   265      1
   266   265   266      1
   267   265   267      1
   268   265   268      1
   269   266   269      1
   270   266   270      1
   271   266   271      1
   272   271   272      1
   273   271   273      1
   274   271   274      1
   275   272   275      1
   276   272   276      1
   277   272   277      1
   278   277   278      1
   279   277   279      1
   280   277   280      1
   281   278   281      1
   282   278   282      1
   283   278   283      1
   284   283   284      1
   285   283   285      1
   286   283   286      1
   287   284   287      1
   288   284   288      1
   289   284   289      1
   290   289   290      1
   291   289   291      1
   292   289   292      1
   293   290   293      1
   294   290   294      1
   295   290   295      1
   296   295   296      1
   297   295   297      1
   298   295   298      1
   299   296   299      1
   300   296   300      1
   301   296   301      1
   302   301   302      1
   303   301   303      1
   304   301   304      1
   305   302   305      1
   306   302   306      1
   307   302   307      1
   308   307   308      1
   309   307   309      1
   310   307   310      1
   311   308   311      1
   312   308   312      1
   313   308   313      1
   314   313   314      1
   315   313   315      1
   316   313   316      1
   317   314   317      1
   318   314   318      1
   319   314   319      1
   320   319   320      1
   321   319   321      1
   322   319   322      1
   323   320   323      1
   324   320   324      1
   325   320   325      1
   326   325   326      1
   327   325   327      1
   328   325   328      1
   329   326   329      1
   330   326   330      1
   331   326   331      1
   332   331   332      1
   333   331   333      1
   334   331   334      1
   335   332   335      1
   336   332   336      1
   337   332   337      1
   338   337   338      1
   339   337   339      1
   340   337   340      1
   341   338   341      1
   342   338   342      1
   343   338   343      1
   344   343   344      1
   345   343   345      1
   346   343   346      1
   347   344   347      1
   348   344   348      1
   349   344   349      1
   350   349   350      1
   351   349   351      1
   352   349   352      1
   353   350   353      1
   354   350   354      1
   355   350   355      1
   356   355   356      1
   357   355   357      1
   358   355   358      1
   359   356   359      1
   360   356   360      1
   361   356   361      1
   362   361   362      1
   363   361   363      1
   364   361   364      1
   365   362   365      1
   366   362   366      1
   367   362   367      1
   368   367   368      1
   369   367   369      1
   370   367   370      1
   371   368   371      1
   372   368   372      1
   373   368   373      1
   374   373   374      1
   375   373   375      1
   376   373   376      1
   377   374   377      1
   378   374   378      1
   379   374   379      1
   380   379   380      1
   381   379   381      1
   382   379   382      1
   383   380   383      1
   384   380   384      1
   385   380   385      1
   386   385   386      1
   387   385   387      1
   388   385   388      1
   389   386   389      1
   390   386   390      1
   391   386   391      1
   392   391   392      1
   393   391   393      1
   394   391   394      1
   395   392   395      1
   396   392   396      1
   397   392   397      1
   398   397   398      1
   399   397   399      1
   400   397   400      1
   401   398   401      1
   402   398   402      1
   403   398   403      1
   404   403   404      1
   405   403   405      1
   406   403   406      1
   407   404   407      1
   408   404   408      1
   409   404   409      1
   410   409   410      1
   411   409   411      1
   412   409   412      1
   413   410   413      1
   414   410   414      1
   415   410   415      1
   416   415   416      1
   417   415   417      1
   418   415   418      1
   419   416   419      1
   420   416   420      1
   421   416   421      1
   422   421   422      1
   423   421   423      1
   424   421   424      1
   425   422   425      1
   426   422   426      1
   427   422   427      1
   428   427   428      1
   429   427   429      1
   430   427   430      1
   431   428   431      1
   432   428   432      1
   433   428   433      1
   434   433   434      1
   435   433   435      1
   436   433   436      1
   437   434   437      1
   438   434   438      1
   439   434   439      1
   440   439   440      1
   441   439   441      1
   442   439   442      1
   443   440   443      1
   444   440   444      1
   445   440   445      1
   446   445   446      1
   447   445   447      1
   448   445   448      1
   449   446   449      1
   450   446   450      1
   451   446   451      1
   452   451   452      1
   453   451   453      1
   454   451   454      1
   455   452   455      1
   456   452   456      1
   457   452   457      1
   458   457   458      1
   459   457   459      1
   460   457   460      1
   461   458   461      1
   462   458   462      1
   463   458   463      1
   464   463   464      1
   465   463   465      1
   466   463   466      1
   467   464   467      1
   468   464   468      1
   469   464   469      1
   470   469   470      1
   471   469   471      1
   472   469   472      1
   473   470   473      1
   474   470   474      1
   475   470   475      1
   476   475   476      1
   477   475   477      1
   478   475   478      1
   479   476   479      1
   480   476   480      1
   481   476   481      1
   482   481   482      1
   483   481   483      1
   484   481   484      1
   485   482   485      1
   486   482   486      1
   487   482   487      1
   488   487   488      1
   489   487   489      1
   490   487   490      1
   491   488   491      1
   492   488   492      1
   493   488   493      1
   494   493   494      1
   495   493   495      1
   496   493   496      1
   497   494   497      1
   498   494   498      1
   499   494   499      1
   500   499   500      1
   501   499   501      1
   502   499   502      1
   503   500   503      1
   504   500   504      1
   505   500   505      1
   506   505   506      1
   507   505   507      1
   508   505   508      1
   509   506   509      1
   510   506   510      1
   511   506   511      1
   512   511   512      1
   513   511   513      1
   514   511   514      1
   515   512   515      1
   516   512   516      1
   517   512   517      1
   518   517   518      1
   519   517   519      1
   520   517   520      1
   521   518   521      1
   522   518   522      1
   523   518   523      H
