###
### Created by PolyChef-cpp17 on Thu Feb 27 19:40:30 2025
###

@<TRIPOS>MOLECULE
NO_INFO
464 463 1 0 0
SMALL
USER_CHARGES


@<TRIPOS>ATOM
      1 C         139.2798  105.1487  -39.3449 C.3       0        0    0.0000
      2 C         137.8706  104.9882  -38.7641 C.3       0        0    0.0000
      3 H         139.9271  104.3366  -38.9913 H         0        0    0.0000
      4 H         139.7280  106.0855  -38.9913 H         0        0    0.0000
      5 H         137.3722  105.9641  -38.7111 H         0        0    0.0000
      6 H         137.2611  104.3586  -39.4242 H         0        0    0.0000
      7 C         137.8873  104.3509  -37.3319 C.3       1        0    0.0000
      8 C         139.1652  104.6941  -36.5584 C.3       1        0    0.0000
      9 H         137.0071  104.7012  -36.7787 H         1        0    0.0000
     10 H         137.7865  103.2627  -37.4279 H         1        0    0.0000
     11 H         140.0455  104.5158  -37.1882 H         1        0    0.0000
     12 H         139.1735  105.7602  -36.2999 H         1        0    0.0000
     13 C         139.3068  103.8539  -35.2425 C.3       2        0    0.0000
     14 C         140.2066  104.5405  -34.2090 C.3       2        0    0.0000
     15 H         138.3081  103.6873  -34.8202 H         2        0    0.0000
     16 H         139.7107  102.8658  -35.4956 H         2        0    0.0000
     17 H         141.2607  104.4169  -34.4869 H         2        0    0.0000
     18 H         140.0087  105.6195  -34.1957 H         2        0    0.0000
     19 C         139.9946  103.9700  -32.7644 C.3       3        0    0.0000
     20 C         140.6232  104.8631  -31.6891 C.3       3        0    0.0000
     21 H         138.9183  103.8617  -32.5814 H         3        0    0.0000
     22 H         140.4254  102.9622  -32.7154 H         3        0    0.0000
     23 H         141.7123  104.8962  -31.8172 H         3        0    0.0000
     24 H         140.2618  105.8933  -31.7973 H         3        0    0.0000
     25 C         140.3000  104.3639  -30.2387 C.3       4        0    0.0000
     26 C         140.9037  105.2738  -29.1632 C.3       4        0    0.0000
     27 H         139.2110  104.3099  -30.1178 H         4        0    0.0000
     28 H         140.6808  103.3415  -30.1235 H         4        0    0.0000
     29 H         141.9935  105.3223  -29.2799 H         4        0    0.0000
     30 H         140.5282  106.2977  -29.2826 H         4        0    0.0000
     31 C         140.5724  104.7800  -27.7127 C.3       5        0    0.0000
     32 C         141.1803  105.6870  -26.6373 C.3       5        0    0.0000
     33 H         139.4826  104.7350  -27.5949 H         5        0    0.0000
     34 H         140.9446  103.7548  -27.5946 H         5        0    0.0000
     35 H         142.2699  105.7331  -26.7560 H         5        0    0.0000
     36 H         140.8071  106.7120  -26.7546 H         5        0    0.0000
     37 C         140.8505  105.1922  -25.1868 C.3       6        0    0.0000
     38 C         141.4561  106.1008  -24.1113 C.3       6        0    0.0000
     39 H         139.7609  105.1441  -25.0688 H         6        0    0.0000
     40 H         141.2256  104.1680  -25.0688 H         6        0    0.0000
     41 H         142.5456  106.1497  -24.2300 H         6        0    0.0000
     42 H         141.0802  107.1247  -24.2287 H         6        0    0.0000
     43 C         141.1276  105.6050  -22.6609 C.3       7        0    0.0000
     44 C         141.0060  106.7634  -21.6647 C.3       7        0    0.0000
     45 H         140.1929  105.0313  -22.6865 H         7        0    0.0000
     46 H         141.9140  104.9118  -22.3375 H         7        0    0.0000
     47 H         141.9763  107.2615  -21.5466 H         7        0    0.0000
     48 H         140.3091  107.5185  -22.0490 H         7        0    0.0000
     49 C         140.5082  106.2865  -20.2568 C.3       8        0    0.0000
     50 C         141.4398  106.7395  -19.1272 C.3       8        0    0.0000
     51 H         139.4964  106.6759  -20.0889 H         8        0    0.0000
     52 H         140.4278  105.1924  -20.2621 H         8        0    0.0000
     53 H         142.4816  106.7268  -19.4709 H         8        0    0.0000
     54 H         141.2136  107.7754  -18.8456 H         8        0    0.0000
     55 C         141.3163  105.8316  -17.8552 C.3       9        0    0.0000
     56 C         140.9984  106.6406  -16.5928 C.3       9        0    0.0000
     57 H         140.5332  105.0833  -18.0295 H         9        0    0.0000
     58 H         142.2551  105.2799  -17.7220 H         9        0    0.0000
     59 H         141.8935  107.1773  -16.2548 H         9        0    0.0000
     60 H         140.2399  107.4015  -16.8147 H         9        0    0.0000
     61 C         140.4795  105.7360  -15.4224 C.3      10        0    0.0000
     62 C         140.8784  106.2808  -14.0465 C.3      10        0    0.0000
     63 H         139.3876  105.6573  -15.4937 H        10        0    0.0000
     64 H         140.8778  104.7225  -15.5556 H        10        0    0.0000
     65 H         141.9536  106.4979  -14.0251 H        10        0    0.0000
     66 H         140.3617  107.2290  -13.8532 H        10        0    0.0000
     67 C         140.5424  105.2773  -12.8900 C.3      11        0    0.0000
     68 C         140.7709  105.8907  -11.5041 C.3      11        0    0.0000
     69 H         139.4982  104.9569  -12.9920 H        11        0    0.0000
     70 H         141.1607  104.3791  -13.0104 H        11        0    0.0000
     71 H         141.8237  106.1767  -11.3882 H        11        0    0.0000
     72 H         140.1812  106.8096  -11.3976 H        11        0    0.0000
     73 C         140.3848  104.9055  -10.3474 C.3      12        0    0.0000
     74 C         140.6231  105.5151   -8.9615 C.3      12        0    0.0000
     75 H         139.3299  104.6255  -10.4588 H        12        0    0.0000
     76 H         140.9689  103.9836  -10.4584 H        12        0    0.0000
     77 H         141.6776  105.7968   -8.8508 H        12        0    0.0000
     78 H         140.0376  106.4360   -8.8498 H        12        0    0.0000
     79 C         140.2395  104.5290   -7.8048 C.3      13        0    0.0000
     80 C         140.4741  105.1399   -6.4189 C.3      13        0    0.0000
     81 H         139.1858  104.2449   -7.9172 H        13        0    0.0000
     82 H         140.8271  103.6091   -7.9148 H        13        0    0.0000
     83 H         141.5278  105.4240   -6.3066 H        13        0    0.0000
     84 H         139.8864  106.0597   -6.3089 H        13        0    0.0000
     85 C         140.0905  104.1538   -5.2622 C.3      14        0    0.0000
     86 C         140.3273  104.7640   -3.8764 C.3      14        0    0.0000
     87 H         139.0365  103.8709   -5.3737 H        14        0    0.0000
     88 H         140.6771  103.2334   -5.3732 H        14        0    0.0000
     89 H         141.3804  105.0511   -3.7667 H        14        0    0.0000
     90 H         139.7370  105.6818   -3.7637 H        14        0    0.0000
     91 C         139.9500  103.7754   -2.7197 C.3      15        0    0.0000
     92 C         140.1848  104.3863   -1.3338 C.3      15        0    0.0000
     93 H         138.8973  103.4871   -2.8303 H        15        0    0.0000
     94 H         140.5413  102.8581   -2.8316 H        15        0    0.0000
     95 H         141.2360  104.6808   -1.2258 H        15        0    0.0000
     96 H         139.5883  105.2998   -1.2194 H        15        0    0.0000
     97 C         139.8166  103.3943   -0.1771 C.3      16        0    0.0000
     98 C         139.9334  104.0452    1.2055 C.3      16        0    0.0000
     99 H         138.7942  103.0296   -0.3361 H        16        0    0.0000
    100 H         140.4761  102.5197   -0.2381 H        16        0    0.0000
    101 H         139.5847  103.3499    1.9792 H        16        0    0.0000
    102 H         140.9844  104.2652    1.4301 H        16        0    0.0000
    103 C         139.1059  105.3726    1.3090 C.3      17        0    0.0000
    104 C         139.2462  106.0389    2.6821 C.3      17        0    0.0000
    105 H         139.4397  106.0597    0.5216 H        17        0    0.0000
    106 H         138.0514  105.1487    1.1055 H        17        0    0.0000
    107 H         139.6834  107.0390    2.5720 H        17        0    0.0000
    108 H         138.2571  106.1758    3.1366 H        17        0    0.0000
    109 C         140.1402  105.2015    3.6603 C.3      18        0    0.0000
    110 C         140.2041  105.8191    5.0616 C.3      18        0    0.0000
    111 H         139.7422  104.1808    3.7170 H        18        0    0.0000
    112 H         141.1494  105.1230    3.2374 H        18        0    0.0000
    113 H         140.7497  105.1533    5.7416 H        18        0    0.0000
    114 H         140.7612  106.7637    5.0313 H        18        0    0.0000
    115 C         138.7795  106.0916    5.6562 C.3      19        0    0.0000
    116 C         138.8420  106.8187    7.0040 C.3      19        0    0.0000
    117 H         138.2028  106.6844    4.9354 H        19        0    0.0000
    118 H         138.2544  105.1349    5.7690 H        19        0    0.0000
    119 H         138.4311  107.8311    6.9046 H        19        0    0.0000
    120 H         138.2198  106.2973    7.7419 H        19        0    0.0000
    121 C         140.3052  106.9193    7.5575 C.3      20        0    0.0000
    122 C         140.3708  107.6685    8.8929 C.3      20        0    0.0000
    123 H         140.7095  105.9062    7.6742 H        20        0    0.0000
    124 H         140.9314  107.4244    6.8116 H        20        0    0.0000
    125 H         141.3675  107.5577    9.3378 H        20        0    0.0000
    126 H         140.2162  108.7423    8.7299 H        20        0    0.0000
    127 C         139.3007  107.1536    9.9162 C.3      21        0    0.0000
    128 C         139.3073  107.9607   11.2191 C.3      21        0    0.0000
    129 H         138.3101  107.2042    9.4474 H        21        0    0.0000
    130 H         139.4950  106.0950   10.1285 H        21        0    0.0000
    131 H         138.8108  108.9269   11.0656 H        21        0    0.0000
    132 H         138.7357  107.4321   11.9920 H        21        0    0.0000
    133 C         140.7592  108.2177   11.7514 C.3      22        0    0.0000
    134 C         140.7809  109.1969   12.9303 C.3      22        0    0.0000
    135 H         141.2010  107.2591   12.0505 H        22        0    0.0000
    136 H         141.3738  108.6050   10.9294 H        22        0    0.0000
    137 H         141.5041  108.8620   13.6842 H        22        0    0.0000
    138 H         141.1138  110.1859   12.5917 H        22        0    0.0000
    139 C         139.3748  109.3418   13.6081 C.3      23        0    0.0000
    140 C         139.4276  110.1989   14.8776 C.3      23        0    0.0000
    141 H         138.6775  109.7830   12.8851 H        23        0    0.0000
    142 H         138.9918  108.3415   13.8452 H        23        0    0.0000
    143 H         139.6698  111.2375   14.6205 H        23        0    0.0000
    144 H         138.4431  110.2155   15.3614 H        23        0    0.0000
    145 C         140.4872  109.6726   15.9061 C.3      24        0    0.0000
    146 C         140.5683  110.5528   17.1582 C.3      24        0    0.0000
    147 H         140.2281  108.6439   16.1856 H        24        0    0.0000
    148 H         141.4664  109.6282   15.4135 H        24        0    0.0000
    149 H         141.1629  110.0519   17.9322 H        24        0    0.0000
    150 H         141.0831  111.4929   16.9245 H        24        0    0.0000
    151 C         139.1525  110.8842   17.7442 C.3      25        0    0.0000
    152 C         139.2265  111.8554   18.9275 C.3      25        0    0.0000
    153 H         138.5305  111.3094   16.9468 H        25        0    0.0000
    154 H         138.6706  109.9489   18.0548 H        25        0    0.0000
    155 H         139.3712  112.8804   18.5644 H        25        0    0.0000
    156 H         138.2788  111.8479   19.4801 H        25        0    0.0000
    157 C         140.3904  111.5003   19.9157 C.3      26        0    0.0000
    158 C         140.4612  112.4686   21.1017 C.3      26        0    0.0000
    159 H         140.2477  110.4740   20.2760 H        26        0    0.0000
    160 H         141.3385  111.5115   19.3639 H        26        0    0.0000
    161 H         141.1752  112.0980   21.8477 H        26        0    0.0000
    162 H         140.8327  113.4454   20.7682 H        26        0    0.0000
    163 C         139.0673  112.6665   21.7910 C.3      27        0    0.0000
    164 C         139.1482  113.5924   23.0097 C.3      27        0    0.0000
    165 H         138.3635  113.0743   21.0549 H        27        0    0.0000
    166 H         138.6778  111.6853   22.0893 H        27        0    0.0000
    167 H         139.3427  114.6228   22.6871 H        27        0    0.0000
    168 H         138.1867  113.6040   23.5379 H        27        0    0.0000
    169 C         140.2708  113.1567   24.0134 C.3      28        0    0.0000
    170 C         140.4151  114.1354   25.1840 C.3      28        0    0.0000
    171 H         140.0390  112.1524   24.3890 H        28        0    0.0000
    172 H         141.2204  113.0782   23.4695 H        28        0    0.0000
    173 H         141.0144  113.6808   25.9827 H        28        0    0.0000
    174 H         140.9536  115.0341   24.8588 H        28        0    0.0000
    175 C         139.0277  114.5637   25.7748 C.3      29        0    0.0000
    176 C         139.1737  115.4848   26.9911 C.3      29        0    0.0000
    177 H         138.4490  115.0661   24.9898 H        29        0    0.0000
    178 H         138.4674  113.6618   26.0510 H        29        0    0.0000
    179 H         139.5625  116.4619   26.6785 H        29        0    0.0000
    180 H         138.1917  115.6670   27.4450 H        29        0    0.0000
    181 C         140.1297  114.8851   28.0791 C.3      30        0    0.0000
    182 C         140.3222  115.8320   29.2688 C.3      30        0    0.0000
    183 H         139.7181  113.9280   28.4228 H        30        0    0.0000
    184 H         141.0985  114.6627   27.6148 H        30        0    0.0000
    185 H         140.8098  115.3020   30.0964 H        30        0    0.0000
    186 H         140.9874  116.6581   28.9883 H        30        0    0.0000
    187 C         138.9650  116.4273   29.7799 C.3      31        0    0.0000
    188 C         139.1517  117.3336   31.0017 C.3      31        0    0.0000
    189 H         138.4955  116.9893   28.9630 H        31        0    0.0000
    190 H         138.2863  115.6010   30.0247 H        31        0    0.0000
    191 H         139.6598  118.2606   30.7084 H        31        0    0.0000
    192 H         138.1747  117.6244   31.4072 H        31        0    0.0000
    193 C         139.9827  116.6389   32.1351 C.3      32        0    0.0000
    194 C         140.2260  117.5681   33.3295 C.3      32        0    0.0000
    195 H         139.4499  115.7374   32.4623 H        32        0    0.0000
    196 H         140.9404  116.3047   31.7173 H        32        0    0.0000
    197 H         140.6047  116.9922   34.1830 H        32        0    0.0000
    198 H         140.9980  118.3066   33.0804 H        32        0    0.0000
    199 C         138.9252  118.3251   33.7680 C.3      33        0    0.0000
    200 C         139.1522  119.2018   35.0045 C.3      33        0    0.0000
    201 H         138.5746  118.9402   32.9300 H        33        0    0.0000
    202 H         138.1378  117.5881   33.9689 H        33        0    0.0000
    203 H         139.7943  120.0538   34.7488 H        33        0    0.0000
    204 H         138.1982  119.6188   35.3502 H        33        0    0.0000
    205 C         139.8129  118.4070   36.1831 C.3      34        0    0.0000
    206 C         140.1097  119.3009   37.3922 C.3      34        0    0.0000
    207 H         139.1443  117.5880   36.4760 H        34        0    0.0000
    208 H         140.7392  117.9435   35.8216 H        34        0    0.0000
    209 H         140.3492  118.6835   38.2668 H        34        0    0.0000
    210 H         140.9922  119.9216   37.1935 H        34        0    0.0000
    211 C         138.9038  120.2368   37.7493 C.3      35        0    0.0000
    212 C         139.1735  121.0798   39.0006 C.3      35        0    0.0000
    213 H         138.6978  120.8905   36.8926 H        35        0    0.0000
    214 H         138.0089  119.6197   37.8971 H        35        0    0.0000
    215 H         139.9454  121.8301   38.7895 H        35        0    0.0000
    216 H         138.2684  121.6305   39.2854 H        35        0    0.0000
    217 C         139.6371  120.2062   40.2169 C.3      36        0    0.0000
    218 C         139.9834  121.0563   41.4442 C.3      36        0    0.0000
    219 H         138.8402  119.4943   40.4651 H        36        0    0.0000
    220 H         140.5076  119.6114   39.9135 H        36        0    0.0000
    221 H         140.0694  120.4177   42.3320 H        36        0    0.0000
    222 H         140.9600  121.5365   41.3058 H        36        0    0.0000
    223 C         138.9101  122.1648   41.7211 C.3      37        0    0.0000
    224 C         139.2157  122.9648   42.9921 C.3      37        0    0.0000
    225 H         138.8646  122.8371   40.8553 H        37        0    0.0000
    226 H         137.9245  121.6900   41.8033 H        37        0    0.0000
    227 H         140.1072  123.5860   42.8404 H        37        0    0.0000
    228 H         138.3882  123.6501   43.2134 H        37        0    0.0000
    229 C         139.4509  122.0386   44.2349 C.3      38        0    0.0000
    230 C         139.8497  122.8325   45.4837 C.3      38        0    0.0000
    231 H         138.5344  121.4677   44.4288 H        38        0    0.0000
    232 H         140.2311  121.3078   43.9886 H        38        0    0.0000
    233 H         139.7561  122.2016   46.3763 H        38        0    0.0000
    234 H         140.9031  123.1320   45.4187 H        38        0    0.0000
    235 C         138.9707  124.1160   45.6777 C.3      39        0    0.0000
    236 C         139.3079  124.8604   46.9743 C.3      39        0    0.0000
    237 H         139.1162  124.7779   44.8151 H        39        0    0.0000
    238 H         137.9132  123.8239   45.6758 H        39        0    0.0000
    239 H         140.3077  125.3064   46.9029 H        39        0    0.0000
    240 H         138.6040  125.6880   47.1268 H        39        0    0.0000
    241 C         139.2622  123.9206   48.2281 C.3      40        0    0.0000
    242 C         139.7025  124.6386   49.5086 C.3      40        0    0.0000
    243 H         138.2414  123.5358   48.3446 H        40        0    0.0000
    244 H         139.9068  123.0525   48.0430 H        40        0    0.0000
    245 H         139.4065  124.0539   50.3884 H        40        0    0.0000
    246 H         140.7961  124.7195   49.5374 H        40        0    0.0000
    247 C         139.0863  126.0753   49.6260 C.3      41        0    0.0000
    248 C         139.4430  126.7536   50.9533 C.3      41        0    0.0000
    249 H         139.4432  126.6829   48.7852 H        41        0    0.0000
    250 H         137.9966  126.0023   49.5218 H        41        0    0.0000
    251 H         140.5155  126.9821   50.9826 H        41        0    0.0000
    252 H         138.9144  127.7110   51.0404 H        41        0    0.0000
    253 C         139.0821  125.8626   52.1916 C.3      42        0    0.0000
    254 C         139.5541  126.4834   53.5111 C.3      42        0    0.0000
    255 H         137.9957  125.7119   52.2142 H        42        0    0.0000
    256 H         139.5349  124.8723   52.0586 H        42        0    0.0000
    257 H         139.0409  126.0071   54.3557 H        42        0    0.0000
    258 H         140.6267  126.3003   53.6505 H        42        0    0.0000
    259 C         139.2935  128.0282   53.5676 C.3      43        0    0.0000
    260 C         139.6531  128.6284   54.9312 C.3      43        0    0.0000
    261 H         139.8779  128.5145   52.7767 H        43        0    0.0000
    262 H         138.2370  128.2171   53.3402 H        43        0    0.0000
    263 H         140.7381  128.5837   55.0876 H        43        0    0.0000
    264 H         139.3739  129.6889   54.9609 H        43        0    0.0000
    265 C         138.9413  127.8852   56.1138 C.3      44        0    0.0000
    266 C         139.4143  128.3857   57.4830 C.3      44        0    0.0000
    267 H         137.8573  128.0232   56.0168 H        44        0    0.0000
    268 H         139.1314  126.8088   56.0205 H        44        0    0.0000
    269 H         138.6965  128.0925   58.2592 H        44        0    0.0000
    270 H         140.3708  127.9167   57.7451 H        44        0    0.0000
    271 C         139.5888  129.9432   57.5185 C.3      45        0    0.0000
    272 C         139.9321  130.4575   58.9208 C.3      45        0    0.0000
    273 H         140.3772  130.2269   56.8103 H        45        0    0.0000
    274 H         138.6624  130.4110   57.1626 H        45        0    0.0000
    275 H         140.9320  130.1135   59.2133 H        45        0    0.0000
    276 H         139.9633  131.5541   58.9222 H        45        0    0.0000
    277 C         138.8983  129.9801   59.9983 C.3      46        0    0.0000
    278 C         139.3362  130.3391   61.4225 C.3      46        0    0.0000
    279 H         137.9239  130.4337   59.7788 H        46        0    0.0000
    280 H         138.7682  128.8946   59.9070 H        46        0    0.0000
    281 H         138.4960  130.2148   62.1169 H        46        0    0.0000
    282 H         140.1254  129.6545   61.7573 H        46        0    0.0000
    283 C         139.8656  131.8108   61.5282 C.3      47        0    0.0000
    284 C         140.1742  132.2146   62.9741 C.3      47        0    0.0000
    285 H         140.7668  131.9076   60.9101 H        47        0    0.0000
    286 H         139.1160  132.4879   61.1003 H        47        0    0.0000
    287 H         141.0293  131.6397   63.3510 H        47        0    0.0000
    288 H         140.4627  133.2722   63.0159 H        47        0    0.0000
    289 C         138.9518  131.9863   63.9285 C.3      48        0    0.0000
    290 C         139.3074  132.2369   65.3981 C.3      48        0    0.0000
    291 H         138.1342  132.6499   63.6209 H        48        0    0.0000
    292 H         138.5892  130.9589   63.7992 H        48        0    0.0000
    293 H         138.3928  132.3057   66.0001 H        48        0    0.0000
    294 H         139.8831  131.3917   65.7953 H        48        0    0.0000
    295 C         140.1400  133.5510   65.5921 C.3      49        0    0.0000
    296 C         140.3788  133.8743   67.0711 C.3      49        0    0.0000
    297 H         141.0993  133.4419   65.0712 H        49        0    0.0000
    298 H         139.6103  134.3801   65.1066 H        49        0    0.0000
    299 H         141.0389  133.1212   67.5189 H        49        0    0.0000
    300 H         140.8913  134.8396   67.1671 H        49        0    0.0000
    301 C         139.0436  133.9274   67.8907 C.3      50        0    0.0000
    302 C         139.2900  134.1273   69.3902 C.3      50        0    0.0000
    303 H         138.4209  134.7418   67.5000 H        50        0    0.0000
    304 H         138.4876  132.9968   67.7217 H        50        0    0.0000
    305 H         138.3647  134.4492   69.8839 H        50        0    0.0000
    306 H         139.5800  133.1763   69.8538 H        50        0    0.0000
    307 C         140.4087  135.1887   69.6721 C.3      51        0    0.0000
    308 C         140.5747  135.4741   71.1688 C.3      51        0    0.0000
    309 H         141.3546  134.8259   69.2511 H        51        0    0.0000
    310 H         140.1606  136.1143   69.1379 H        51        0    0.0000
    311 H         140.9807  134.5909   71.6773 H        51        0    0.0000
    312 H         141.2985  136.2846   71.3192 H        51        0    0.0000
    313 C         139.2209  135.8725   71.8514 C.3      52        0    0.0000
    314 C         139.3599  136.0287   73.3697 C.3      52        0    0.0000
    315 H         138.8637  136.8101   71.4079 H        52        0    0.0000
    316 H         138.4693  135.1078   71.6192 H        52        0    0.0000
    317 H         138.5065  136.5903   73.7698 H        52        0    0.0000
    318 H         139.3430  135.0437   73.8524 H        52        0    0.0000
    319 C         140.6834  136.7662   73.7724 C.3      53        0    0.0000
    320 C         140.7572  137.0468   75.2773 C.3      53        0    0.0000
    321 H         141.5384  136.1529   73.4617 H        53        0    0.0000
    322 H         140.7493  137.7062   73.2107 H        53        0    0.0000
    323 H         140.8451  136.1044   75.8319 H        53        0    0.0000
    324 H         141.6558  137.6326   75.5071 H        53        0    0.0000
    325 C         139.5000  137.8246   75.7989 C.3      54        0    0.0000
    326 C         139.5589  138.0775   77.3094 C.3      54        0    0.0000
    327 H         139.4253  138.7776   75.2606 H        54        0    0.0000
    328 H         138.5997  137.2499   75.5485 H        54        0    0.0000
    329 H         138.7711  138.7819   77.6039 H        54        0    0.0000
    330 H         139.3676  137.1449   77.8547 H        54        0    0.0000
    331 C         140.9454  138.6521   77.7619 C.3      55        0    0.0000
    332 C         141.0214  138.8591   79.2787 C.3      55        0    0.0000
    333 H         141.7363  137.9651   77.4360 H        55        0    0.0000
    334 H         141.1205  139.6028   77.2433 H        55        0    0.0000
    335 H         141.7978  138.2138   79.7080 H        55        0    0.0000
    336 H         141.3114  139.8930   79.5032 H        55        0    0.0000
    337 C         139.6585  138.5510   79.9893 C.3      56        0    0.0000
    338 C         139.7868  138.5508   81.5166 C.3      56        0    0.0000
    339 H         138.9187  139.2972   79.6741 H        56        0    0.0000
    340 H         139.2911  137.5771   79.6426 H        56        0    0.0000
    341 H         138.9525  139.1051   81.9642 H        56        0    0.0000
    342 H         139.7245  137.5245   81.8992 H        56        0    0.0000
    343 C         141.1346  139.1893   81.9996 C.3      57        0    0.0000
    344 C         141.2594  139.1962   83.5272 C.3      57        0    0.0000
    345 H         141.9689  138.6314   81.5566 H        57        0    0.0000
    346 H         141.1995  140.2136   81.6122 H        57        0    0.0000
    347 H         142.1603  138.6502   83.8335 H        57        0    0.0000
    348 H         141.3757  140.2248   83.8904 H        57        0    0.0000
    349 C         140.0146  138.5506   84.2280 C.3      58        0    0.0000
    350 C         140.1134  138.6087   85.7563 C.3      58        0    0.0000
    351 H         139.1094  139.0699   83.8895 H        58        0    0.0000
    352 H         139.9228  137.5090   83.8963 H        58        0    0.0000
    353 H         141.0142  138.0822   86.0953 H        58        0    0.0000
    354 H         140.2136  139.6498   86.0875 H        58        0    0.0000
    355 C         138.8631  137.9736   86.4571 C.3      59        0    0.0000
    356 C         138.9641  138.0274   87.9854 C.3      59        0    0.0000
    357 H         137.9626  138.5024   86.1207 H        59        0    0.0000
    358 H         138.7609  136.9336   86.1232 H        59        0    0.0000
    359 H         138.1101  138.5774   88.3997 H        59        0    0.0000
    360 H         138.9175  137.0133   88.4014 H        59        0    0.0000
    361 C         140.2888  138.7118   88.4696 C.3      60        0    0.0000
    362 C         140.3913  138.7626   89.9980 C.3      60        0    0.0000
    363 H         141.1428  138.1632   88.0533 H        60        0    0.0000
    364 H         140.3342  139.7267   88.0555 H        60        0    0.0000
    365 H         140.5831  137.7583   90.3957 H        60        0    0.0000
    366 H         141.2417  139.3877   90.2973 H        60        0    0.0000
    367 C         139.0892  139.3290   90.6622 C.3      61        0    0.0000
    368 C         139.0922  139.1573   92.1852 C.3      61        0    0.0000
    369 H         138.9935  140.3909   90.4036 H        61        0    0.0000
    370 H         138.2203  138.8194   90.2279 H        61        0    0.0000
    371 H         138.7345  140.0752   92.6680 H        61        0    0.0000
    372 H         138.3988  138.3581   92.4750 H        61        0    0.0000
    373 C         140.5175  138.8161   92.7418 C.3      62        0    0.0000
    374 C         140.5054  138.5630   94.2534 C.3      62        0    0.0000
    375 H         140.9005  137.9331   92.2156 H        62        0    0.0000
    376 H         141.1972  139.6439   92.5045 H        62        0    0.0000
    377 H         140.0939  137.5683   94.4650 H        62        0    0.0000
    378 H         141.5305  138.5694   94.6441 H        62        0    0.0000
    379 C         139.6626  139.6338   95.0284 C.3      63        0    0.0000
    380 C         139.5945  139.3425   96.5316 C.3      63        0    0.0000
    381 H         140.1041  140.6233   94.8566 H        63        0    0.0000
    382 H         138.6512  139.6622   94.6045 H        63        0    0.0000
    383 H         139.1982  140.2148   97.0662 H        63        0    0.0000
    384 H         138.9014  138.5140   96.7232 H        63        0    0.0000
    385 C         140.9965  138.9772   97.1301 C.3      64        0    0.0000
    386 C         140.9138  138.5950   98.6121 C.3      64        0    0.0000
    387 H         141.4231  138.1487   96.5513 H        64        0    0.0000
    388 H         141.6707  139.8327   96.9994 H        64        0    0.0000
    389 H         140.5238  137.5749   98.7162 H        64        0    0.0000
    390 H         141.9164  138.5960   99.0574 H        64        0    0.0000
    391 C         139.9979  139.5718   99.4273 C.3      65        0    0.0000
    392 C         139.8170  139.1211  100.8810 C.3      65        0    0.0000
    393 H         140.4371  140.5766   99.3968 H        65        0    0.0000
    394 H         139.0222  139.6393   98.9302 H        65        0    0.0000
    395 H         139.1680  139.8259  101.4153 H        65        0    0.0000
    396 H         139.3163  138.1455  100.9128 H        65        0    0.0000
    397 C         141.1823  139.0135  101.6439 C.3      66        0    0.0000
    398 C         140.9935  138.6843  103.1288 C.3      66        0    0.0000
    399 H         141.7964  138.2423  101.1627 H        66        0    0.0000
    400 H         141.7240  139.9612  101.5346 H        66        0    0.0000
    401 H         140.5980  137.6672  103.2413 H        66        0    0.0000
    402 H         141.9615  138.7047  103.6446 H        66        0    0.0000
    403 C         140.0204  139.6864  103.8405 C.3      67        0    0.0000
    404 C         139.7340  139.2861  105.2919 C.3      67        0    0.0000
    405 H         140.4607  140.6907  103.8071 H        67        0    0.0000
    406 H         139.0837  139.7340  103.2715 H        67        0    0.0000
    407 H         139.3056  140.1352  105.8388 H        67        0    0.0000
    408 H         138.9864  138.4837  105.3203 H        67        0    0.0000
    409 C         141.0236  138.8018  106.0402 C.3      68        0    0.0000
    410 C         140.7554  138.4881  107.5163 C.3      68        0    0.0000
    411 H         141.4145  137.9120  105.5315 H        68        0    0.0000
    412 H         141.7944  139.5777  105.9546 H        68        0    0.0000
    413 H         140.1212  137.5969  107.6022 H        68        0    0.0000
    414 H         141.6971  138.2551  108.0285 H        68        0    0.0000
    415 C         140.0570  139.6787  108.2594 C.3      69        0    0.0000
    416 C         139.7964  139.3681  109.7374 C.3      69        0    0.0000
    417 H         140.6882  140.5713  108.1682 H        69        0    0.0000
    418 H         139.1123  139.9075  107.7508 H        69        0    0.0000
    419 H         139.4580  140.2726  110.2579 H        69        0    0.0000
    420 H         138.9894  138.6307  109.8302 H        69        0    0.0000
    421 C         141.0717  138.8153  110.4622 C.3      70        0    0.0000
    422 C         140.8055  138.4847  111.9349 C.3      70        0    0.0000
    423 H         141.4192  137.9196  109.9325 H        70        0    0.0000
    424 H         141.8740  139.5594  110.3828 H        70        0    0.0000
    425 H         140.1999  137.5731  112.0123 H        70        0    0.0000
    426 H         141.7513  138.2793  112.4513 H        70        0    0.0000
    427 C         140.0650  139.6479  112.6805 C.3      71        0    0.0000
    428 C         139.7924  139.3145  114.1514 C.3      71        0    0.0000
    429 H         140.6729  140.5582  112.6075 H        71        0    0.0000
    430 H         139.1215  139.8568  112.1611 H        71        0    0.0000
    431 H         139.4336  140.2068  114.6792 H        71        0    0.0000
    432 H         138.9964  138.5632  114.2256 H        71        0    0.0000
    433 C         141.0682  138.7730  114.8840 C.3      72        0    0.0000
    434 C         140.8023  138.4639  116.3615 C.3      72        0    0.0000
    435 H         141.4160  137.8698  114.3675 H        72        0    0.0000
    436 H         141.8701  139.5161  114.7936 H        72        0    0.0000
    437 H         140.1662  137.5746  116.4511 H        72        0    0.0000
    438 H         141.7445  138.2300  116.8723 H        72        0    0.0000
    439 C         140.1085  139.6582  117.1028 C.3      73        0    0.0000
    440 C         139.7407  139.3092  118.5491 C.3      73        0    0.0000
    441 H         140.7812  140.5246  117.0844 H        73        0    0.0000
    442 H         139.2088  139.9460  116.5448 H        73        0    0.0000
    443 H         140.1139  140.0844  119.2297 H        73        0    0.0000
    444 H         138.6500  139.2867  118.6650 H        73        0    0.0000
    445 C         140.3245  137.9236  118.9928 C.3      74        0    0.0000
    446 C         140.1428  137.6703  120.4934 C.3      74        0    0.0000
    447 H         139.8323  137.1312  118.4153 H        74        0    0.0000
    448 H         141.3895  137.8886  118.7316 H        74        0    0.0000
    449 H         139.7845  136.6472  120.6615 H        74        0    0.0000
    450 H         141.1076  137.7549  121.0087 H        74        0    0.0000
    451 C         139.1312  138.6738  121.1471 C.3      75        0    0.0000
    452 C         139.0400  138.4992  122.6670 C.3      75        0    0.0000
    453 H         139.4416  139.6975  120.9039 H        75        0    0.0000
    454 H         138.1439  138.5275  120.6917 H        75        0    0.0000
    455 H         138.3938  139.2747  123.0966 H        75        0    0.0000
    456 H         138.5767  137.5343  122.9077 H        75        0    0.0000
    457 C         140.4449  138.5717  123.3587 C.3      76        0    0.0000
    458 C         140.4951  139.6348  124.4615 C.3      76        0    0.0000
    459 H         140.6852  137.5857  123.7755 H        76        0    0.0000
    460 H         141.2040  138.7848  122.5959 H        76        0    0.0000
    461 H         140.2549  140.6208  124.0448 H        76        0    0.0000
    462 H         139.7360  139.4217  125.2244 H        76        0    0.0000
    463 H         141.4720  139.6853  124.9425 H        76        0    0.0000
    464 H         139.2798  105.1487  -40.4349 H         0        0    0.0000
@<TRIPOS>BOND
     1     1     2      1
     2     1     3      1
     3     1     4      1
     4     1   464      H
     5     2     5      1
     6     2     6      1
     7     2     7      1
     8     7     8      1
     9     7     9      1
    10     7    10      1
    11     8    11      1
    12     8    12      1
    13     8    13      1
    14    13    14      1
    15    13    15      1
    16    13    16      1
    17    14    17      1
    18    14    18      1
    19    14    19      1
    20    19    20      1
    21    19    21      1
    22    19    22      1
    23    20    23      1
    24    20    24      1
    25    20    25      1
    26    25    26      1
    27    25    27      1
    28    25    28      1
    29    26    29      1
    30    26    30      1
    31    26    31      1
    32    31    32      1
    33    31    33      1
    34    31    34      1
    35    32    35      1
    36    32    36      1
    37    32    37      1
    38    37    38      1
    39    37    39      1
    40    37    40      1
    41    38    41      1
    42    38    42      1
    43    38    43      1
    44    43    44      1
    45    43    45      1
    46    43    46      1
    47    44    47      1
    48    44    48      1
    49    44    49      1
    50    49    50      1
    51    49    51      1
    52    49    52      1
    53    50    53      1
    54    50    54      1
    55    50    55      1
    56    55    56      1
    57    55    57      1
    58    55    58      1
    59    56    59      1
    60    56    60      1
    61    56    61      1
    62    61    62      1
    63    61    63      1
    64    61    64      1
    65    62    65      1
    66    62    66      1
    67    62    67      1
    68    67    68      1
    69    67    69      1
    70    67    70      1
    71    68    71      1
    72    68    72      1
    73    68    73      1
    74    73    74      1
    75    73    75      1
    76    73    76      1
    77    74    77      1
    78    74    78      1
    79    74    79      1
    80    79    80      1
    81    79    81      1
    82    79    82      1
    83    80    83      1
    84    80    84      1
    85    80    85      1
    86    85    86      1
    87    85    87      1
    88    85    88      1
    89    86    89      1
    90    86    90      1
    91    86    91      1
    92    91    92      1
    93    91    93      1
    94    91    94      1
    95    92    95      1
    96    92    96      1
    97    92    97      1
    98    97    98      1
    99    97    99      1
   100    97   100      1
   101    98   101      1
   102    98   102      1
   103    98   103      1
   104   103   104      1
   105   103   105      1
   106   103   106      1
   107   104   107      1
   108   104   108      1
   109   104   109      1
   110   109   110      1
   111   109   111      1
   112   109   112      1
   113   110   113      1
   114   110   114      1
   115   110   115      1
   116   115   116      1
   117   115   117      1
   118   115   118      1
   119   116   119      1
   120   116   120      1
   121   116   121      1
   122   121   122      1
   123   121   123      1
   124   121   124      1
   125   122   125      1
   126   122   126      1
   127   122   127      1
   128   127   128      1
   129   127   129      1
   130   127   130      1
   131   128   131      1
   132   128   132      1
   133   128   133      1
   134   133   134      1
   135   133   135      1
   136   133   136      1
   137   134   137      1
   138   134   138      1
   139   134   139      1
   140   139   140      1
   141   139   141      1
   142   139   142      1
   143   140   143      1
   144   140   144      1
   145   140   145      1
   146   145   146      1
   147   145   147      1
   148   145   148      1
   149   146   149      1
   150   146   150      1
   151   146   151      1
   152   151   152      1
   153   151   153      1
   154   151   154      1
   155   152   155      1
   156   152   156      1
   157   152   157      1
   158   157   158      1
   159   157   159      1
   160   157   160      1
   161   158   161      1
   162   158   162      1
   163   158   163      1
   164   163   164      1
   165   163   165      1
   166   163   166      1
   167   164   167      1
   168   164   168      1
   169   164   169      1
   170   169   170      1
   171   169   171      1
   172   169   172      1
   173   170   173      1
   174   170   174      1
   175   170   175      1
   176   175   176      1
   177   175   177      1
   178   175   178      1
   179   176   179      1
   180   176   180      1
   181   176   181      1
   182   181   182      1
   183   181   183      1
   184   181   184      1
   185   182   185      1
   186   182   186      1
   187   182   187      1
   188   187   188      1
   189   187   189      1
   190   187   190      1
   191   188   191      1
   192   188   192      1
   193   188   193      1
   194   193   194      1
   195   193   195      1
   196   193   196      1
   197   194   197      1
   198   194   198      1
   199   194   199      1
   200   199   200      1
   201   199   201      1
   202   199   202      1
   203   200   203      1
   204   200   204      1
   205   200   205      1
   206   205   206      1
   207   205   207      1
   208   205   208      1
   209   206   209      1
   210   206   210      1
   211   206   211      1
   212   211   212      1
   213   211   213      1
   214   211   214      1
   215   212   215      1
   216   212   216      1
   217   212   217      1
   218   217   218      1
   219   217   219      1
   220   217   220      1
   221   218   221      1
   222   218   222      1
   223   218   223      1
   224   223   224      1
   225   223   225      1
   226   223   226      1
   227   224   227      1
   228   224   228      1
   229   224   229      1
   230   229   230      1
   231   229   231      1
   232   229   232      1
   233   230   233      1
   234   230   234      1
   235   230   235      1
   236   235   236      1
   237   235   237      1
   238   235   238      1
   239   236   239      1
   240   236   240      1
   241   236   241      1
   242   241   242      1
   243   241   243      1
   244   241   244      1
   245   242   245      1
   246   242   246      1
   247   242   247      1
   248   247   248      1
   249   247   249      1
   250   247   250      1
   251   248   251      1
   252   248   252      1
   253   248   253      1
   254   253   254      1
   255   253   255      1
   256   253   256      1
   257   254   257      1
   258   254   258      1
   259   254   259      1
   260   259   260      1
   261   259   261      1
   262   259   262      1
   263   260   263      1
   264   260   264      1
   265   260   265      1
   266   265   266      1
   267   265   267      1
   268   265   268      1
   269   266   269      1
   270   266   270      1
   271   266   271      1
   272   271   272      1
   273   271   273      1
   274   271   274      1
   275   272   275      1
   276   272   276      1
   277   272   277      1
   278   277   278      1
   279   277   279      1
   280   277   280      1
   281   278   281      1
   282   278   282      1
   283   278   283      1
   284   283   284      1
   285   283   285      1
   286   283   286      1
   287   284   287      1
   288   284   288      1
   289   284   289      1
   290   289   290      1
   291   289   291      1
   292   289   292      1
   293   290   293      1
   294   290   294      1
   295   290   295      1
   296   295   296      1
   297   295   297      1
   298   295   298      1
   299   296   299      1
   300   296   300      1
   301   296   301      1
   302   301   302      1
   303   301   303      1
   304   301   304      1
   305   302   305      1
   306   302   306      1
   307   302   307      1
   308   307   308      1
   309   307   309      1
   310   307   310      1
   311   308   311      1
   312   308   312      1
   313   308   313      1
   314   313   314      1
   315   313   315      1
   316   313   316      1
   317   314   317      1
   318   314   318      1
   319   314   319      1
   320   319   320      1
   321   319   321      1
   322   319   322      1
   323   320   323      1
   324   320   324      1
   325   320   325      1
   326   325   326      1
   327   325   327      1
   328   325   328      1
   329   326   329      1
   330   326   330      1
   331   326   331      1
   332   331   332      1
   333   331   333      1
   334   331   334      1
   335   332   335      1
   336   332   336      1
   337   332   337      1
   338   337   338      1
   339   337   339      1
   340   337   340      1
   341   338   341      1
   342   338   342      1
   343   338   343      1
   344   343   344      1
   345   343   345      1
   346   343   346      1
   347   344   347      1
   348   344   348      1
   349   344   349      1
   350   349   350      1
   351   349   351      1
   352   349   352      1
   353   350   353      1
   354   350   354      1
   355   350   355      1
   356   355   356      1
   357   355   357      1
   358   355   358      1
   359   356   359      1
   360   356   360      1
   361   356   361      1
   362   361   362      1
   363   361   363      1
   364   361   364      1
   365   362   365      1
   366   362   366      1
   367   362   367      1
   368   367   368      1
   369   367   369      1
   370   367   370      1
   371   368   371      1
   372   368   372      1
   373   368   373      1
   374   373   374      1
   375   373   375      1
   376   373   376      1
   377   374   377      1
   378   374   378      1
   379   374   379      1
   380   379   380      1
   381   379   381      1
   382   379   382      1
   383   380   383      1
   384   380   384      1
   385   380   385      1
   386   385   386      1
   387   385   387      1
   388   385   388      1
   389   386   389      1
   390   386   390      1
   391   386   391      1
   392   391   392      1
   393   391   393      1
   394   391   394      1
   395   392   395      1
   396   392   396      1
   397   392   397      1
   398   397   398      1
   399   397   399      1
   400   397   400      1
   401   398   401      1
   402   398   402      1
   403   398   403      1
   404   403   404      1
   405   403   405      1
   406   403   406      1
   407   404   407      1
   408   404   408      1
   409   404   409      1
   410   409   410      1
   411   409   411      1
   412   409   412      1
   413   410   413      1
   414   410   414      1
   415   410   415      1
   416   415   416      1
   417   415   417      1
   418   415   418      1
   419   416   419      1
   420   416   420      1
   421   416   421      1
   422   421   422      1
   423   421   423      1
   424   421   424      1
   425   422   425      1
   426   422   426      1
   427   422   427      1
   428   427   428      1
   429   427   429      1
   430   427   430      1
   431   428   431      1
   432   428   432      1
   433   428   433      1
   434   433   434      1
   435   433   435      1
   436   433   436      1
   437   434   437      1
   438   434   438      1
   439   434   439      1
   440   439   440      1
   441   439   441      1
   442   439   442      1
   443   440   443      1
   444   440   444      1
   445   440   445      1
   446   445   446      1
   447   445   447      1
   448   445   448      1
   449   446   449      1
   450   446   450      1
   451   446   451      1
   452   451   452      1
   453   451   453      1
   454   451   454      1
   455   452   455      1
   456   452   456      1
   457   452   457      1
   458   457   458      1
   459   457   459      1
   460   457   460      1
   461   458   461      1
   462   458   462      1
   463   458   463      H
