###
### Created by PolyChef-cpp17 on Thu Feb 27 19:40:30 2025
###

@<TRIPOS>MOLECULE
NO_INFO
146 145 1 0 0
SMALL
USER_CHARGES


@<TRIPOS>ATOM
      1 C          69.2798  122.4687  -39.3449 C.3       0        0    0.0000
      2 C          67.8706  122.3082  -38.7641 C.3       0        0    0.0000
      3 H          69.9271  121.6566  -38.9913 H         0        0    0.0000
      4 H          69.7280  123.4055  -38.9913 H         0        0    0.0000
      5 H          67.3723  123.2841  -38.7106 H         0        0    0.0000
      6 H          67.2609  121.6790  -39.4244 H         0        0    0.0000
      7 C          67.8873  121.6703  -37.3322 C.3       1        0    0.0000
      8 C          69.1649  122.0134  -36.5583 C.3       1        0    0.0000
      9 H          67.0069  122.0202  -36.7789 H         1        0    0.0000
     10 H          67.7867  120.5821  -37.4287 H         1        0    0.0000
     11 H          70.0454  121.8346  -37.1878 H         1        0    0.0000
     12 H          69.1735  123.0797  -36.3002 H         1        0    0.0000
     13 C          69.3058  121.1738  -35.2420 C.3       2        0    0.0000
     14 C          70.2067  121.8598  -34.2091 C.3       2        0    0.0000
     15 H          68.3070  121.0087  -34.8193 H         2        0    0.0000
     16 H          69.7084  120.1851  -35.4947 H         2        0    0.0000
     17 H          71.2605  121.7359  -34.4878 H         2        0    0.0000
     18 H          70.0093  122.9388  -34.1954 H         2        0    0.0000
     19 C          69.9957  121.2890  -32.7644 C.3       3        0    0.0000
     20 C          70.6218  122.1838  -31.6892 C.3       3        0    0.0000
     21 H          68.9196  121.1782  -32.5817 H         3        0    0.0000
     22 H          70.4289  120.2823  -32.7152 H         3        0    0.0000
     23 H          71.7110  122.2187  -31.8163 H         3        0    0.0000
     24 H          70.2588  123.2133  -31.7983 H         3        0    0.0000
     25 C          70.2981  121.6850  -30.2387 C.3       4        0    0.0000
     26 C          70.9014  122.5952  -29.1632 C.3       4        0    0.0000
     27 H          69.2090  121.6310  -30.1182 H         4        0    0.0000
     28 H          70.6789  120.6626  -30.1231 H         4        0    0.0000
     29 H          71.9912  122.6434  -29.2793 H         4        0    0.0000
     30 H          70.5262  123.6191  -29.2833 H         4        0    0.0000
     31 C          70.5691  122.1020  -27.7128 C.3       5        0    0.0000
     32 C          71.1897  123.0005  -26.6373 C.3       5        0    0.0000
     33 H          69.4792  122.0684  -27.5918 H         5        0    0.0000
     34 H          70.9307  121.0727  -27.5977 H         5        0    0.0000
     35 H          72.2793  123.0366  -26.7603 H         5        0    0.0000
     36 H          70.8256  124.0292  -26.7505 H         5        0    0.0000
     37 C          70.8611  122.5048  -25.1869 C.3       6        0    0.0000
     38 C          71.4362  123.4333  -24.1115 C.3       6        0    0.0000
     39 H          69.7721  122.4309  -25.0768 H         6        0    0.0000
     40 H          71.2601  121.4907  -25.0609 H         6        0    0.0000
     41 H          72.5262  123.5004  -24.2163 H         6        0    0.0000
     42 H          71.0439  124.4493  -24.2429 H         6        0    0.0000
     43 C          71.0971  122.9443  -22.6613 C.3       7        0    0.0000
     44 C          72.2270  123.2409  -21.6692 C.3       7        0    0.0000
     45 H          70.1702  123.4301  -22.3319 H         7        0    0.0000
     46 H          70.8948  121.8664  -22.6897 H         7        0    0.0000
     47 H          73.1825  122.8779  -22.0678 H         7        0    0.0000
     48 H          72.3336  124.3243  -21.5334 H         7        0    0.0000
     49 C          71.9787  122.5784  -20.2703 C.3       8        0    0.0000
     50 C          72.0454  123.5956  -19.1258 C.3       8        0    0.0000
     51 H          70.9976  122.0876  -20.2807 H         8        0    0.0000
     52 H          72.7244  121.7887  -20.1157 H         8        0    0.0000
     53 H          73.0899  123.7747  -18.8421 H         8        0    0.0000
     54 H          71.6386  124.5597  -19.4552 H         8        0    0.0000
     55 C          71.2527  123.1186  -17.8602 C.3       9        0    0.0000
     56 C          72.1014  123.1813  -16.5856 C.3       9        0    0.0000
     57 H          70.3578  123.7431  -17.7473 H         9        0    0.0000
     58 H          70.9019  122.0929  -18.0285 H         9        0    0.0000
     59 H          73.1051  122.7843  -16.7820 H         9        0    0.0000
     60 H          72.2312  124.2242  -16.2709 H         9        0    0.0000
     61 C          71.4607  122.3733  -15.4049 C.3      10        0    0.0000
     62 C          71.8298  122.9545  -14.0356 C.3      10        0    0.0000
     63 H          70.3708  122.3685  -15.5301 H        10        0    0.0000
     64 H          71.7900  121.3289  -15.4714 H        10        0    0.0000
     65 H          72.9053  122.8363  -13.8542 H        10        0    0.0000
     66 H          71.6237  124.0319  -14.0163 H        10        0    0.0000
     67 C          71.0419  122.2683  -12.8669 C.3      11        0    0.0000
     68 C          71.5428  122.7136  -11.4886 C.3      11        0    0.0000
     69 H          69.9756  122.5033  -12.9736 H        11        0    0.0000
     70 H          71.1363  121.1800  -12.9680 H        11        0    0.0000
     71 H          72.6170  122.5112  -11.3953 H        11        0    0.0000
     72 H          71.4153  123.7971  -11.3739 H        11        0    0.0000
     73 C          70.7890  121.9897  -10.3201 C.3      12        0    0.0000
     74 C          71.2771  122.4485   -8.9416 C.3      12        0    0.0000
     75 H          69.7135  122.1808  -10.4212 H        12        0    0.0000
     76 H          70.9279  120.9067  -10.4271 H        12        0    0.0000
     77 H          72.3517  122.2531   -8.8389 H        12        0    0.0000
     78 H          71.1425  123.5322   -8.8365 H        12        0    0.0000
     79 C          70.5187  121.7294   -7.7732 C.3      13        0    0.0000
     80 C          71.0045  122.1907   -6.3947 C.3      13        0    0.0000
     81 H          69.4439  121.9229   -7.8774 H        13        0    0.0000
     82 H          70.6552  120.6459   -7.8770 H        13        0    0.0000
     83 H          72.0791  121.9958   -6.2900 H        13        0    0.0000
     84 H          70.8694  123.2745   -6.2915 H        13        0    0.0000
     85 C          70.2447  121.4732   -5.2263 C.3      14        0    0.0000
     86 C          70.7323  121.9325   -3.8478 C.3      14        0    0.0000
     87 H          69.1703  121.6696   -5.3299 H        14        0    0.0000
     88 H          70.3783  120.3893   -5.3306 H        14        0    0.0000
     89 H          71.8055  121.7310   -3.7420 H        14        0    0.0000
     90 H          70.6039  123.0172   -3.7456 H        14        0    0.0000
     91 C          69.9669  121.2208   -2.6794 C.3      15        0    0.0000
     92 C          70.4572  121.6774   -1.3009 C.3      15        0    0.0000
     93 H          68.8940  121.4247   -2.7835 H        15        0    0.0000
     94 H          70.0930  120.1360   -2.7832 H        15        0    0.0000
     95 H          71.5321  121.4825   -1.2004 H        15        0    0.0000
     96 H          70.3220  122.7607   -1.1933 H        15        0    0.0000
     97 C          69.7015  120.9554   -0.1325 C.3      16        0    0.0000
     98 C          70.3332  121.2440    1.2338 C.3      16        0    0.0000
     99 H          68.6527  121.2773   -0.1375 H        16        0    0.0000
    100 H          69.7005  119.8755   -0.3259 H        16        0    0.0000
    101 H          71.4268  121.2554    1.1477 H        16        0    0.0000
    102 H          70.0344  122.2399    1.5836 H        16        0    0.0000
    103 C          69.9224  120.1847    2.3139 C.3      17        0    0.0000
    104 C          70.6468  120.4033    3.6468 C.3      17        0    0.0000
    105 H          68.8367  120.2347    2.4632 H        17        0    0.0000
    106 H          70.1414  119.1818    1.9269 H        17        0    0.0000
    107 H          71.7318  120.4244    3.4862 H        17        0    0.0000
    108 H          70.3718  121.3779    4.0689 H        17        0    0.0000
    109 C          70.3127  119.2863    4.6947 C.3      18        0    0.0000
    110 C          71.2306  119.3467    5.9207 C.3      18        0    0.0000
    111 H          69.2654  119.3929    5.0034 H        18        0    0.0000
    112 H          70.3995  118.3072    4.2077 H        18        0    0.0000
    113 H          72.2774  119.4294    5.6031 H        18        0    0.0000
    114 H          71.0092  120.2436    6.5125 H        18        0    0.0000
    115 C          71.0792  118.0853    6.8389 C.3      19        0    0.0000
    116 C          72.1018  118.0716    7.9804 C.3      19        0    0.0000
    117 H          70.0607  118.0645    7.2461 H        19        0    0.0000
    118 H          71.1907  117.1842    6.2232 H        19        0    0.0000
    119 H          71.8979  118.8934    8.6780 H        19        0    0.0000
    120 H          72.0121  117.1413    8.5548 H        19        0    0.0000
    121 C          73.5747  118.2043    7.4602 C.3      20        0    0.0000
    122 C          74.5979  118.1824    8.6011 C.3      20        0    0.0000
    123 H          73.7767  117.3860    6.7580 H        20        0    0.0000
    124 H          73.6659  119.1376    6.8909 H        20        0    0.0000
    125 H          75.6142  118.1151    8.1936 H        20        0    0.0000
    126 H          74.5477  119.1194    9.1694 H        20        0    0.0000
    127 C          74.3668  116.9827    9.5834 C.3      21        0    0.0000
    128 C          75.0076  117.2232   10.9547 C.3      21        0    0.0000
    129 H          73.2877  116.8204    9.6956 H        21        0    0.0000
    130 H          74.7771  116.0713    9.1311 H        21        0    0.0000
    131 H          74.8463  116.3530   11.6031 H        21        0    0.0000
    132 H          76.0932  117.3393   10.8476 H        21        0    0.0000
    133 C          74.4309  118.4962   11.6649 C.3      22        0    0.0000
    134 C          75.0424  118.7139   13.0533 C.3      22        0    0.0000
    135 H          74.6186  119.3709   11.0298 H        22        0    0.0000
    136 H          73.3417  118.3933   11.7455 H        22        0    0.0000
    137 H          74.7719  119.7075   13.4319 H        22        0    0.0000
    138 H          74.6334  117.9843   13.7631 H        22        0    0.0000
    139 C          76.6048  118.5860   13.0411 C.3      23        0    0.0000
    140 C          77.2972  119.8829   13.4742 C.3      23        0    0.0000
    141 H          76.8973  117.7634   13.7055 H        23        0    0.0000
    142 H          76.9287  118.3057   12.0312 H        23        0    0.0000
    143 H          77.0046  120.7054   12.8099 H        23        0    0.0000
    144 H          76.9732  120.1632   14.4841 H        23        0    0.0000
    145 H          78.3835  119.7939   13.4657 H        23        0    0.0000
    146 H          69.2798  122.4687  -40.4349 H         0        0    0.0000
@<TRIPOS>BOND
     1     1     2      1
     2     1     3      1
     3     1     4      1
     4     1   146      H
     5     2     5      1
     6     2     6      1
     7     2     7      1
     8     7     8      1
     9     7     9      1
    10     7    10      1
    11     8    11      1
    12     8    12      1
    13     8    13      1
    14    13    14      1
    15    13    15      1
    16    13    16      1
    17    14    17      1
    18    14    18      1
    19    14    19      1
    20    19    20      1
    21    19    21      1
    22    19    22      1
    23    20    23      1
    24    20    24      1
    25    20    25      1
    26    25    26      1
    27    25    27      1
    28    25    28      1
    29    26    29      1
    30    26    30      1
    31    26    31      1
    32    31    32      1
    33    31    33      1
    34    31    34      1
    35    32    35      1
    36    32    36      1
    37    32    37      1
    38    37    38      1
    39    37    39      1
    40    37    40      1
    41    38    41      1
    42    38    42      1
    43    38    43      1
    44    43    44      1
    45    43    45      1
    46    43    46      1
    47    44    47      1
    48    44    48      1
    49    44    49      1
    50    49    50      1
    51    49    51      1
    52    49    52      1
    53    50    53      1
    54    50    54      1
    55    50    55      1
    56    55    56      1
    57    55    57      1
    58    55    58      1
    59    56    59      1
    60    56    60      1
    61    56    61      1
    62    61    62      1
    63    61    63      1
    64    61    64      1
    65    62    65      1
    66    62    66      1
    67    62    67      1
    68    67    68      1
    69    67    69      1
    70    67    70      1
    71    68    71      1
    72    68    72      1
    73    68    73      1
    74    73    74      1
    75    73    75      1
    76    73    76      1
    77    74    77      1
    78    74    78      1
    79    74    79      1
    80    79    80      1
    81    79    81      1
    82    79    82      1
    83    80    83      1
    84    80    84      1
    85    80    85      1
    86    85    86      1
    87    85    87      1
    88    85    88      1
    89    86    89      1
    90    86    90      1
    91    86    91      1
    92    91    92      1
    93    91    93      1
    94    91    94      1
    95    92    95      1
    96    92    96      1
    97    92    97      1
    98    97    98      1
    99    97    99      1
   100    97   100      1
   101    98   101      1
   102    98   102      1
   103    98   103      1
   104   103   104      1
   105   103   105      1
   106   103   106      1
   107   104   107      1
   108   104   108      1
   109   104   109      1
   110   109   110      1
   111   109   111      1
   112   109   112      1
   113   110   113      1
   114   110   114      1
   115   110   115      1
   116   115   116      1
   117   115   117      1
   118   115   118      1
   119   116   119      1
   120   116   120      1
   121   116   121      1
   122   121   122      1
   123   121   123      1
   124   121   124      1
   125   122   125      1
   126   122   126      1
   127   122   127      1
   128   127   128      1
   129   127   129      1
   130   127   130      1
   131   128   131      1
   132   128   132      1
   133   128   133      1
   134   133   134      1
   135   133   135      1
   136   133   136      1
   137   134   137      1
   138   134   138      1
   139   134   139      1
   140   139   140      1
   141   139   141      1
   142   139   142      1
   143   140   143      1
   144   140   144      1
   145   140   145      H
