###
### Created by PolyChef-cpp17 on Thu Feb 27 19:40:28 2025
###

@<TRIPOS>MOLECULE
NO_INFO
308 307 1 0 0
SMALL
USER_CHARGES


@<TRIPOS>ATOM
      1 C          79.2798    1.2287  120.6551 C.3       0        0    0.0000
      2 C          78.4513    0.0775  120.0742 C.3       0        0    0.0000
      3 H          78.8875    2.1902  120.3014 H         0        0    0.0000
      4 H          80.3162    1.1621  120.3014 H         0        0    0.0000
      5 H          78.4076   -0.7529  120.7898 H         0        0    0.0000
      6 H          77.4175    0.4047  119.9078 H         0        0    0.0000
      7 C          79.0377   -0.4524  118.7204 C.3       1        0    0.0000
      8 C          79.6354    0.6714  117.8668 C.3       1        0    0.0000
      9 H          79.8034   -1.2073  118.9381 H         1        0    0.0000
     10 H          78.2408   -0.9630  118.1656 H         1        0    0.0000
     11 H          78.9450    1.5232  117.8293 H         1        0    0.0000
     12 H          80.5632    1.0378  118.3234 H         1        0    0.0000
     13 C          79.9429    0.2055  116.4019 C.3       2        0    0.0000
     14 C          79.8896    1.3645  115.4004 C.3       2        0    0.0000
     15 H          80.9340   -0.2644  116.3811 H         2        0    0.0000
     16 H          79.2206   -0.5701  116.1186 H         2        0    0.0000
     17 H          78.9712    1.9464  115.5471 H         2        0    0.0000
     18 H          80.7281    2.0503  115.5738 H         2        0    0.0000
     19 C          79.9415    0.8683  113.9143 C.3       3        0    0.0000
     20 C          79.8273    2.0225  112.9123 C.3       3        0    0.0000
     21 H          80.8808    0.3242  113.7558 H         3        0    0.0000
     22 H          79.1294    0.1486  113.7532 H         3        0    0.0000
     23 H          78.8932    2.5734  113.0781 H         3        0    0.0000
     24 H          80.6457    2.7366  113.0662 H         3        0    0.0000
     25 C          79.8635    1.5248  111.4262 C.3       4        0    0.0000
     26 C          79.8705    2.6853  110.4251 C.3       4        0    0.0000
     27 H          80.7541    0.9001  111.2842 H         4        0    0.0000
     28 H          78.9944    0.8796  111.2481 H         4        0    0.0000
     29 H          78.9716    3.3004  110.5559 H         4        0    0.0000
     30 H          80.7304    3.3399  110.6141 H         4        0    0.0000
     31 C          79.9309    2.1881  108.9396 C.3       5        0    0.0000
     32 C          78.8710    2.8590  108.0590 C.3       5        0    0.0000
     33 H          80.9330    2.3877  108.5403 H         5        0    0.0000
     34 H          79.7973    1.0993  108.9255 H         5        0    0.0000
     35 H          77.9133    2.9053  108.5922 H         5        0    0.0000
     36 H          79.1618    3.8946  107.8433 H         5        0    0.0000
     37 C          78.6585    2.1011  106.7033 C.3       6        0    0.0000
     38 C          79.0008    2.9732  105.4904 C.3       6        0    0.0000
     39 H          79.2787    1.1962  106.7031 H         6        0    0.0000
     40 H          77.6149    1.7677  106.6444 H         6        0    0.0000
     41 H          78.1139    3.5317  105.1663 H         6        0    0.0000
     42 H          79.7591    3.7173  105.7641 H         6        0    0.0000
     43 C          79.5349    2.1282  104.2829 C.3       7        0    0.0000
     44 C          78.9344    2.5800  102.9471 C.3       7        0    0.0000
     45 H          80.6284    2.2097  104.2504 H         7        0    0.0000
     46 H          79.3029    1.0709  104.4611 H         7        0    0.0000
     47 H          77.8466    2.6873  103.0408 H         7        0    0.0000
     48 H          79.3260    3.5675  102.6734 H         7        0    0.0000
     49 C          79.2447    1.5738  101.7856 C.3       8        0    0.0000
     50 C          79.0612    2.2086  100.4027 C.3       8        0    0.0000
     51 H          80.2732    1.2094  101.8988 H         8        0    0.0000
     52 H          78.5881    0.7011  101.8890 H         8        0    0.0000
     53 H          78.0120    2.4937  100.2559 H         8        0    0.0000
     54 H          79.6512    3.1307  100.3308 H         8        0    0.0000
     55 C          79.4893    1.2431   99.2443 C.3       9        0    0.0000
     56 C          79.2287    1.8459   97.8595 C.3       9        0    0.0000
     57 H          80.5545    1.0061   99.3570 H         9        0    0.0000
     58 H          78.9432    0.2977   99.3519 H         9        0    0.0000
     59 H          78.1663    2.0977   97.7528 H         9        0    0.0000
     60 H          79.7876    2.7831   97.7459 H         9        0    0.0000
     61 C          79.6358    0.8713   96.7011 C.3      10        0    0.0000
     62 C          79.3808    1.4765   95.3163 C.3      10        0    0.0000
     63 H          80.6971    0.6159   96.8104 H        10        0    0.0000
     64 H          79.0735   -0.0642   96.8121 H        10        0    0.0000
     65 H          78.3199    1.7337   95.2076 H        10        0    0.0000
     66 H          79.9446    2.4110   95.2046 H        10        0    0.0000
     67 C          79.7854    0.5008   94.1579 C.3      11        0    0.0000
     68 C          79.5373    1.1089   92.7730 C.3      11        0    0.0000
     69 H          80.8450    0.2394   94.2696 H        11        0    0.0000
     70 H          79.2177   -0.4316   94.2664 H        11        0    0.0000
     71 H          78.4775    1.3692   92.6609 H        11        0    0.0000
     72 H          80.1040    2.0420   92.6649 H        11        0    0.0000
     73 C          79.9435    0.1340   91.6146 C.3      12        0    0.0000
     74 C          79.6954    0.7420   90.2298 C.3      12        0    0.0000
     75 H          81.0034   -0.1263   91.7268 H        12        0    0.0000
     76 H          79.3769   -0.7992   91.7228 H        12        0    0.0000
     77 H          78.6358    1.0037   90.1183 H        12        0    0.0000
     78 H          80.2633    1.6743   90.1211 H        12        0    0.0000
     79 C          80.0995   -0.2339   89.0714 C.3      13        0    0.0000
     80 C          79.8458    0.3719   87.6866 C.3      13        0    0.0000
     81 H          81.1601   -0.4922   89.1805 H        13        0    0.0000
     82 H          79.5347   -1.1678   89.1826 H        13        0    0.0000
     83 H          78.7869    0.6387   87.5809 H        13        0    0.0000
     84 H          80.4177    1.3010   87.5719 H        13        0    0.0000
     85 C          80.2377   -0.6089   86.5282 C.3      14        0    0.0000
     86 C          79.9845   -0.0030   85.1434 C.3      14        0    0.0000
     87 H          81.2965   -0.8760   86.6341 H        14        0    0.0000
     88 H          79.6656   -1.5379   86.6427 H        14        0    0.0000
     89 H          78.9507    0.3575   85.0739 H        14        0    0.0000
     90 H          80.6330    0.8685   84.9898 H        14        0    0.0000
     91 C          80.2394   -1.0323   83.9889 C.3      15        0    0.0000
     92 C          79.9591   -0.4349   82.6056 C.3      15        0    0.0000
     93 H          81.2793   -1.3773   84.0459 H        15        0    0.0000
     94 H          79.6060   -1.9127   84.1538 H        15        0    0.0000
     95 H          78.8778   -0.3975   82.4241 H        15        0    0.0000
     96 H          80.3217    0.5996   82.5621 H        15        0    0.0000
     97 C          80.6365   -1.2565   81.4551 C.3      16        0    0.0000
     98 C          80.4220   -0.6155   80.0796 C.3      16        0    0.0000
     99 H          81.7095   -1.3428   81.6667 H        16        0    0.0000
    100 H          80.2309   -2.2758   81.4625 H        16        0    0.0000
    101 H          81.0018   -1.1535   79.3194 H        16        0    0.0000
    102 H          79.3677   -0.6963   79.7872 H        16        0    0.0000
    103 C          80.8383    0.8956   80.0568 C.3      17        0    0.0000
    104 C          80.7444    1.5029   78.6528 C.3      17        0    0.0000
    105 H          80.1943    1.4503   80.7505 H        17        0    0.0000
    106 H          81.8631    0.9858   80.4380 H        17        0    0.0000
    107 H          80.1885    2.4481   78.6882 H        17        0    0.0000
    108 H          81.7476    1.7414   78.2782 H        17        0    0.0000
    109 C          80.0406    0.5405   77.6350 C.3      18        0    0.0000
    110 C          80.1654    1.0325   76.1888 C.3      18        0    0.0000
    111 H          80.4811   -0.4596   77.7315 H        18        0    0.0000
    112 H          78.9829    0.4468   77.9105 H        18        0    0.0000
    113 H          79.6922    0.3163   75.5057 H        18        0    0.0000
    114 H          79.6318    1.9833   76.0676 H        18        0    0.0000
    115 C          81.6588    1.2325   75.7561 C.3      19        0    0.0000
    116 C          81.7812    1.8190   74.3454 C.3      19        0    0.0000
    117 H          82.1520    1.8913   76.4815 H        19        0    0.0000
    118 H          82.1744    0.2655   75.8075 H        19        0    0.0000
    119 H          82.7670    1.5846   73.9248 H        19        0    0.0000
    120 H          81.0382    1.3601   73.6814 H        19        0    0.0000
    121 C          81.5816    3.3738   74.3291 C.3      20        0    0.0000
    122 C          81.8521    3.9796   72.9474 C.3      20        0    0.0000
    123 H          80.5564    3.6020   74.6457 H        20        0    0.0000
    124 H          82.2491    3.8238   75.0744 H        20        0    0.0000
    125 H          81.4930    3.3022   72.1628 H        20        0    0.0000
    126 H          81.2953    4.9179   72.8326 H        20        0    0.0000
    127 C          83.3755    4.2639   72.7113 C.3      21        0    0.0000
    128 C          83.6202    5.1186   71.4628 C.3      21        0    0.0000
    129 H          83.7829    4.7668   73.5971 H        21        0    0.0000
    130 H          83.9041    3.3068   72.6215 H        21        0    0.0000
    131 H          84.4842    4.7338   70.9069 H        21        0    0.0000
    132 H          82.7576    5.0544   70.7880 H        21        0    0.0000
    133 C          83.8757    6.6247   71.8145 C.3      22        0    0.0000
    134 C          84.3326    7.4361   70.5972 C.3      22        0    0.0000
    135 H          82.9537    7.0527   72.2273 H        22        0    0.0000
    136 H          84.6312    6.6793   72.6081 H        22        0    0.0000
    137 H          85.0078    6.8345   69.9761 H        22        0    0.0000
    138 H          83.4697    7.6904   69.9692 H        22        0    0.0000
    139 C          85.0670    8.7591   71.0066 C.3      23        0    0.0000
    140 C          85.5391    9.5620   69.7895 C.3      23        0    0.0000
    141 H          84.3874    9.3663   71.6173 H        23        0    0.0000
    142 H          85.9225    8.5056   71.6449 H        23        0    0.0000
    143 H          86.2123    8.9519   69.1745 H        23        0    0.0000
    144 H          84.6826    9.8225   69.1554 H        23        0    0.0000
    145 C          86.2838   10.8792   70.1991 C.3      24        0    0.0000
    146 C          86.8749   11.6124   68.9899 C.3      24        0    0.0000
    147 H          85.5798   11.5334   70.7284 H        24        0    0.0000
    148 H          87.0786   10.6288   70.9126 H        24        0    0.0000
    149 H          87.5535   10.9473   68.4416 H        24        0    0.0000
    150 H          86.0759   11.8921   68.2921 H        24        0    0.0000
    151 C          87.6594   12.9048   69.4040 C.3      25        0    0.0000
    152 C          87.2349   14.1292   68.5857 C.3      25        0    0.0000
    153 H          87.4950   13.0912   70.4726 H        25        0    0.0000
    154 H          88.7337   12.7221   69.2778 H        25        0    0.0000
    155 H          87.9323   14.2856   67.7534 H        25        0    0.0000
    156 H          86.2464   13.9601   68.1409 H        25        0    0.0000
    157 C          87.1823   15.4342   69.4528 C.3      26        0    0.0000
    158 C          88.5220   16.1786   69.4638 C.3      26        0    0.0000
    159 H          86.3924   16.0872   69.0614 H        26        0    0.0000
    160 H          86.8919   15.1671   70.4764 H        26        0    0.0000
    161 H          89.1300   15.8717   68.6037 H        26        0    0.0000
    162 H          88.3535   17.2578   69.3614 H        26        0    0.0000
    163 C          89.3364   15.9167   70.7774 C.3      27        0    0.0000
    164 C          89.8036   17.2173   71.4403 C.3      27        0    0.0000
    165 H          88.7108   15.3436   71.4730 H        27        0    0.0000
    166 H          90.2008   15.2851   70.5376 H        27        0    0.0000
    167 H          90.8385   17.4367   71.1501 H        27        0    0.0000
    168 H          89.1930   18.0586   71.0897 H        27        0    0.0000
    169 C          89.7207   17.1500   73.0043 C.3      28        0    0.0000
    170 C          90.8697   17.9066   73.6799 C.3      28        0    0.0000
    171 H          88.7571   17.5645   73.3255 H        28        0    0.0000
    172 H          89.7299   16.0976   73.3140 H        28        0    0.0000
    173 H          91.8294   17.5973   73.2476 H        28        0    0.0000
    174 H          90.7724   18.9833   73.4929 H        28        0    0.0000
    175 C          90.9114   17.6644   75.2281 C.3      29        0    0.0000
    176 C          90.8875   18.9752   76.0220 C.3      29        0    0.0000
    177 H          90.0567   17.0376   75.5111 H        29        0    0.0000
    178 H          91.8156   17.0931   75.4724 H        29        0    0.0000
    179 H          91.8774   19.4476   75.9979 H        29        0    0.0000
    180 H          90.1892   19.6830   75.5585 H        29        0    0.0000
    181 C          90.4680   18.7569   77.5166 C.3      30        0    0.0000
    182 C          91.4252   19.4463   78.4952 C.3      30        0    0.0000
    183 H          89.4485   19.1371   77.6568 H        30        0    0.0000
    184 H          90.4333   17.6795   77.7204 H        30        0    0.0000
    185 H          92.4642   19.2823   78.1836 H        30        0    0.0000
    186 H          91.2598   20.5308   78.4820 H        30        0    0.0000
    187 C          91.2499   18.9262   79.9636 C.3      31        0    0.0000
    188 C          91.3177   20.0595   80.9932 C.3      31        0    0.0000
    189 H          90.2881   18.4043   80.0414 H        31        0    0.0000
    190 H          92.0295   18.1827   80.1708 H        31        0    0.0000
    191 H          92.3455   20.4348   81.0724 H        31        0    0.0000
    192 H          90.6985   20.9035   80.6648 H        31        0    0.0000
    193 C          90.8361   19.6018   82.4130 C.3      32        0    0.0000
    194 C          91.9158   19.7961   83.4832 C.3      32        0    0.0000
    195 H          89.9352   20.1680   82.6804 H        32        0    0.0000
    196 H          90.5414   18.5462   82.3632 H        32        0    0.0000
    197 H          92.9074   19.5994   83.0572 H        32        0    0.0000
    198 H          91.9217   20.8380   83.8269 H        32        0    0.0000
    199 C          91.7021   18.8572   84.7202 C.3      33        0    0.0000
    200 C          91.4847   19.6451   86.0168 C.3      33        0    0.0000
    201 H          90.8399   18.2072   84.5260 H        33        0    0.0000
    202 H          92.5752   18.2007   84.8209 H        33        0    0.0000
    203 H          92.4466   20.0003   86.4068 H        33        0    0.0000
    204 H          90.8769   20.5364   85.8179 H        33        0    0.0000
    205 C          90.7772   18.7872   87.1218 C.3      34        0    0.0000
    206 C          91.1078   19.2754   88.5365 C.3      34        0    0.0000
    207 H          89.6933   18.8213   86.9558 H        34        0    0.0000
    208 H          91.0811   17.7396   87.0047 H        34        0    0.0000
    209 H          92.1939   19.3734   88.6564 H        34        0    0.0000
    210 H          90.6816   20.2730   88.6994 H        34        0    0.0000
    211 C          90.5628   18.3065   89.6418 C.3      35        0    0.0000
    212 C          90.8642   18.8116   91.0571 C.3      35        0    0.0000
    213 H          89.4804   18.1891   89.5068 H        35        0    0.0000
    214 H          91.0081   17.3148   89.4936 H        35        0    0.0000
    215 H          91.9470   18.9207   91.1949 H        35        0    0.0000
    216 H          90.4263   19.8070   91.2024 H        35        0    0.0000
    217 C          90.3085   17.8489   92.1624 C.3      36        0    0.0000
    218 C          90.6005   18.3595   93.5777 C.3      36        0    0.0000
    219 H          89.2269   17.7336   92.0198 H        36        0    0.0000
    220 H          90.7524   16.8555   92.0219 H        36        0    0.0000
    221 H          91.6822   18.4732   93.7209 H        36        0    0.0000
    222 H          90.1580   19.3535   93.7178 H        36        0    0.0000
    223 C          90.0429   17.3979   94.6831 C.3      37        0    0.0000
    224 C          90.3373   17.9071   96.0984 C.3      37        0    0.0000
    225 H          88.9608   17.2858   94.5412 H        37        0    0.0000
    226 H          90.4838   16.4033   94.5418 H        37        0    0.0000
    227 H          91.4192   18.0234   96.2388 H        37        0    0.0000
    228 H          89.8926   18.8997   96.2412 H        37        0    0.0000
    229 C          89.7853   16.9423   97.2037 C.3      38        0    0.0000
    230 C          90.0771   17.4530   98.6190 C.3      38        0    0.0000
    231 H          88.7038   16.8241   97.0620 H        38        0    0.0000
    232 H          90.2318   15.9502   97.0623 H        38        0    0.0000
    233 H          91.1587   17.5681   98.7618 H        38        0    0.0000
    234 H          89.6333   18.4464   98.7594 H        38        0    0.0000
    235 C          89.5211   16.4904   99.7244 C.3      39        0    0.0000
    236 C          89.8150   16.9999  101.1397 C.3      39        0    0.0000
    237 H          88.4392   16.3767   99.5826 H        39        0    0.0000
    238 H          89.9635   15.4965   99.5829 H        39        0    0.0000
    239 H          90.8966   17.1177  101.2800 H        39        0    0.0000
    240 H          89.3689   17.9919  101.2826 H        39        0    0.0000
    241 C          89.2643   16.0343  102.2450 C.3      40        0    0.0000
    242 C          89.5574   16.5443  103.6603 C.3      40        0    0.0000
    243 H          88.1828   15.9159  102.1043 H        40        0    0.0000
    244 H          89.7109   15.0424  102.1026 H        40        0    0.0000
    245 H          89.0211   15.9349  104.3983 H        40        0    0.0000
    246 H          90.6265   16.4409  103.8835 H        40        0    0.0000
    247 C          89.1447   18.0448  103.8484 C.3      41        0    0.0000
    248 C          89.4178   18.5485  105.2700 C.3      41        0    0.0000
    249 H          89.6930   18.6562  103.1210 H        41        0    0.0000
    250 H          88.0792   18.1511  103.6099 H        41        0    0.0000
    251 H          90.1002   19.4069  105.2403 H        41        0    0.0000
    252 H          88.4863   18.9023  105.7291 H        41        0    0.0000
    253 C          90.0417   17.4383  106.1841 C.3      42        0    0.0000
    254 C          90.0449   17.8380  107.6637 C.3      42        0    0.0000
    255 H          89.4762   16.5082  106.0469 H        42        0    0.0000
    256 H          91.0660   17.2368  105.8466 H        42        0    0.0000
    257 H          90.9498   18.4132  107.8960 H        42        0    0.0000
    258 H          89.1915   18.4932  107.8781 H        42        0    0.0000
    259 C          89.9786   16.5941  108.6153 C.3      43        0    0.0000
    260 C          89.9860   16.9937  110.0950 C.3      43        0    0.0000
    261 H          89.0722   16.0206  108.3851 H        43        0    0.0000
    262 H          90.8303   15.9374  108.3987 H        43        0    0.0000
    263 H          90.8589   17.6223  110.3105 H        43        0    0.0000
    264 H          89.0990   17.5963  110.3263 H        43        0    0.0000
    265 C          90.0130   15.7482  111.0466 C.3      44        0    0.0000
    266 C          90.0161   16.1477  112.5262 C.3      44        0    0.0000
    267 H          89.1418   15.1180  110.8289 H        44        0    0.0000
    268 H          90.9017   15.1472  110.8173 H        44        0    0.0000
    269 H          89.8818   15.2595  113.1560 H        44        0    0.0000
    270 H          90.9866   16.5818  112.7966 H        44        0    0.0000
    271 C          88.8879   17.1822  112.8646 C.3      45        0    0.0000
    272 C          89.0194   17.7409  114.2858 C.3      45        0    0.0000
    273 H          88.9270   17.9997  112.1340 H        45        0    0.0000
    274 H          87.9128   16.6952  112.7406 H        45        0    0.0000
    275 H          89.3615   18.7827  114.2503 H        45        0    0.0000
    276 H          88.0397   17.7476  114.7795 H        45        0    0.0000
    277 C          90.0203   16.9100  115.1605 C.3      46        0    0.0000
    278 C          89.9857   17.3251  116.6355 C.3      46        0    0.0000
    279 H          89.7749   15.8451  115.0636 H        46        0    0.0000
    280 H          91.0326   17.0379  114.7575 H        46        0    0.0000
    281 H          90.7901   18.0414  116.8437 H        46        0    0.0000
    282 H          89.0419   17.8373  116.8600 H        46        0    0.0000
    283 C          90.1378   16.0997  117.6013 C.3      47        0    0.0000
    284 C          90.0977   16.5142  119.0763 C.3      47        0    0.0000
    285 H          89.3357   15.3816  117.3904 H        47        0    0.0000
    286 H          91.0835   15.5899  117.3794 H        47        0    0.0000
    287 H          89.2736   16.0024  119.5886 H        47        0    0.0000
    288 H          91.0221   16.2046  119.5793 H        47        0    0.0000
    289 C          89.9197   18.0616  119.2540 C.3      48        0    0.0000
    290 C          89.8684   18.4748  120.7290 C.3      48        0    0.0000
    291 H          90.7483   18.5731  118.7486 H        48        0    0.0000
    292 H          88.9995   18.3726  118.7439 H        48        0    0.0000
    293 H          89.9205   19.5672  120.8156 H        48        0    0.0000
    294 H          88.9126   18.1689  121.1723 H        48        0    0.0000
    295 C          91.0368   17.8454  121.5633 C.3      49        0    0.0000
    296 C          90.8063   17.9723  123.0732 C.3      49        0    0.0000
    297 H          91.1401   16.7890  121.2861 H        49        0    0.0000
    298 H          91.9763   18.3378  121.2835 H        49        0    0.0000
    299 H          91.6393   17.5142  123.6207 H        49        0    0.0000
    300 H          90.7830   19.0303  123.3626 H        49        0    0.0000
    301 C          89.4684   17.2943  123.5291 C.3      50        0    0.0000
    302 C          89.6781   16.3209  124.6942 C.3      50        0    0.0000
    303 H          88.7554   18.0770  123.8164 H        50        0    0.0000
    304 H          89.0295   16.7672  122.6729 H        50        0    0.0000
    305 H          90.3912   15.5383  124.4069 H        50        0    0.0000
    306 H          90.1170   16.8480  125.5504 H        50        0    0.0000
    307 H          88.7478   15.8495  125.0112 H        50        0    0.0000
    308 H          79.2798    1.2287  121.7450 H         0        0    0.0000
@<TRIPOS>BOND
     1     1     2      1
     2     1     3      1
     3     1     4      1
     4     1   308      H
     5     2     5      1
     6     2     6      1
     7     2     7      1
     8     7     8      1
     9     7     9      1
    10     7    10      1
    11     8    11      1
    12     8    12      1
    13     8    13      1
    14    13    14      1
    15    13    15      1
    16    13    16      1
    17    14    17      1
    18    14    18      1
    19    14    19      1
    20    19    20      1
    21    19    21      1
    22    19    22      1
    23    20    23      1
    24    20    24      1
    25    20    25      1
    26    25    26      1
    27    25    27      1
    28    25    28      1
    29    26    29      1
    30    26    30      1
    31    26    31      1
    32    31    32      1
    33    31    33      1
    34    31    34      1
    35    32    35      1
    36    32    36      1
    37    32    37      1
    38    37    38      1
    39    37    39      1
    40    37    40      1
    41    38    41      1
    42    38    42      1
    43    38    43      1
    44    43    44      1
    45    43    45      1
    46    43    46      1
    47    44    47      1
    48    44    48      1
    49    44    49      1
    50    49    50      1
    51    49    51      1
    52    49    52      1
    53    50    53      1
    54    50    54      1
    55    50    55      1
    56    55    56      1
    57    55    57      1
    58    55    58      1
    59    56    59      1
    60    56    60      1
    61    56    61      1
    62    61    62      1
    63    61    63      1
    64    61    64      1
    65    62    65      1
    66    62    66      1
    67    62    67      1
    68    67    68      1
    69    67    69      1
    70    67    70      1
    71    68    71      1
    72    68    72      1
    73    68    73      1
    74    73    74      1
    75    73    75      1
    76    73    76      1
    77    74    77      1
    78    74    78      1
    79    74    79      1
    80    79    80      1
    81    79    81      1
    82    79    82      1
    83    80    83      1
    84    80    84      1
    85    80    85      1
    86    85    86      1
    87    85    87      1
    88    85    88      1
    89    86    89      1
    90    86    90      1
    91    86    91      1
    92    91    92      1
    93    91    93      1
    94    91    94      1
    95    92    95      1
    96    92    96      1
    97    92    97      1
    98    97    98      1
    99    97    99      1
   100    97   100      1
   101    98   101      1
   102    98   102      1
   103    98   103      1
   104   103   104      1
   105   103   105      1
   106   103   106      1
   107   104   107      1
   108   104   108      1
   109   104   109      1
   110   109   110      1
   111   109   111      1
   112   109   112      1
   113   110   113      1
   114   110   114      1
   115   110   115      1
   116   115   116      1
   117   115   117      1
   118   115   118      1
   119   116   119      1
   120   116   120      1
   121   116   121      1
   122   121   122      1
   123   121   123      1
   124   121   124      1
   125   122   125      1
   126   122   126      1
   127   122   127      1
   128   127   128      1
   129   127   129      1
   130   127   130      1
   131   128   131      1
   132   128   132      1
   133   128   133      1
   134   133   134      1
   135   133   135      1
   136   133   136      1
   137   134   137      1
   138   134   138      1
   139   134   139      1
   140   139   140      1
   141   139   141      1
   142   139   142      1
   143   140   143      1
   144   140   144      1
   145   140   145      1
   146   145   146      1
   147   145   147      1
   148   145   148      1
   149   146   149      1
   150   146   150      1
   151   146   151      1
   152   151   152      1
   153   151   153      1
   154   151   154      1
   155   152   155      1
   156   152   156      1
   157   152   157      1
   158   157   158      1
   159   157   159      1
   160   157   160      1
   161   158   161      1
   162   158   162      1
   163   158   163      1
   164   163   164      1
   165   163   165      1
   166   163   166      1
   167   164   167      1
   168   164   168      1
   169   164   169      1
   170   169   170      1
   171   169   171      1
   172   169   172      1
   173   170   173      1
   174   170   174      1
   175   170   175      1
   176   175   176      1
   177   175   177      1
   178   175   178      1
   179   176   179      1
   180   176   180      1
   181   176   181      1
   182   181   182      1
   183   181   183      1
   184   181   184      1
   185   182   185      1
   186   182   186      1
   187   182   187      1
   188   187   188      1
   189   187   189      1
   190   187   190      1
   191   188   191      1
   192   188   192      1
   193   188   193      1
   194   193   194      1
   195   193   195      1
   196   193   196      1
   197   194   197      1
   198   194   198      1
   199   194   199      1
   200   199   200      1
   201   199   201      1
   202   199   202      1
   203   200   203      1
   204   200   204      1
   205   200   205      1
   206   205   206      1
   207   205   207      1
   208   205   208      1
   209   206   209      1
   210   206   210      1
   211   206   211      1
   212   211   212      1
   213   211   213      1
   214   211   214      1
   215   212   215      1
   216   212   216      1
   217   212   217      1
   218   217   218      1
   219   217   219      1
   220   217   220      1
   221   218   221      1
   222   218   222      1
   223   218   223      1
   224   223   224      1
   225   223   225      1
   226   223   226      1
   227   224   227      1
   228   224   228      1
   229   224   229      1
   230   229   230      1
   231   229   231      1
   232   229   232      1
   233   230   233      1
   234   230   234      1
   235   230   235      1
   236   235   236      1
   237   235   237      1
   238   235   238      1
   239   236   239      1
   240   236   240      1
   241   236   241      1
   242   241   242      1
   243   241   243      1
   244   241   244      1
   245   242   245      1
   246   242   246      1
   247   242   247      1
   248   247   248      1
   249   247   249      1
   250   247   250      1
   251   248   251      1
   252   248   252      1
   253   248   253      1
   254   253   254      1
   255   253   255      1
   256   253   256      1
   257   254   257      1
   258   254   258      1
   259   254   259      1
   260   259   260      1
   261   259   261      1
   262   259   262      1
   263   260   263      1
   264   260   264      1
   265   260   265      1
   266   265   266      1
   267   265   267      1
   268   265   268      1
   269   266   269      1
   270   266   270      1
   271   266   271      1
   272   271   272      1
   273   271   273      1
   274   271   274      1
   275   272   275      1
   276   272   276      1
   277   272   277      1
   278   277   278      1
   279   277   279      1
   280   277   280      1
   281   278   281      1
   282   278   282      1
   283   278   283      1
   284   283   284      1
   285   283   285      1
   286   283   286      1
   287   284   287      1
   288   284   288      1
   289   284   289      1
   290   289   290      1
   291   289   291      1
   292   289   292      1
   293   290   293      1
   294   290   294      1
   295   290   295      1
   296   295   296      1
   297   295   297      1
   298   295   298      1
   299   296   299      1
   300   296   300      1
   301   296   301      1
   302   301   302      1
   303   301   303      1
   304   301   304      1
   305   302   305      1
   306   302   306      1
   307   302   307      H
