###
### Created by PolyChef-cpp17 on Thu Feb 27 19:40:28 2025
###

@<TRIPOS>MOLECULE
NO_INFO
362 361 1 0 0
SMALL
USER_CHARGES


@<TRIPOS>ATOM
      1 C          19.2798   70.5087  -39.3449 C.3       0        0    0.0000
      2 C          17.8706   70.3482  -38.7641 C.3       0        0    0.0000
      3 H          19.9271   69.6966  -38.9913 H         0        0    0.0000
      4 H          19.7280   71.4455  -38.9913 H         0        0    0.0000
      5 H          17.3719   71.3240  -38.7116 H         0        0    0.0000
      6 H          17.2613   69.7181  -39.4239 H         0        0    0.0000
      7 C          17.8874   69.7117  -37.3316 C.3       1        0    0.0000
      8 C          19.1654   70.0550  -36.5584 C.3       1        0    0.0000
      9 H          17.0073   70.0626  -36.7784 H         1        0    0.0000
     10 H          17.7862   68.6235  -37.4270 H         1        0    0.0000
     11 H          20.0457   69.8748  -37.1878 H         1        0    0.0000
     12 H          19.1747   71.1215  -36.3016 H         1        0    0.0000
     13 C          19.3060   69.2169  -35.2411 C.3       2        0    0.0000
     14 C          20.2090   69.9026  -34.2100 C.3       2        0    0.0000
     15 H          18.3073   69.0540  -34.8173 H         2        0    0.0000
     16 H          19.7067   68.2271  -35.4928 H         2        0    0.0000
     17 H          21.2624   69.7766  -34.4894 H         2        0    0.0000
     18 H          20.0135   70.9821  -34.1974 H         2        0    0.0000
     19 C          19.9983   69.3342  -32.7643 C.3       3        0    0.0000
     20 C          20.6277   70.2290  -31.6909 C.3       3        0    0.0000
     21 H          18.9222   69.2260  -32.5803 H         3        0    0.0000
     22 H          20.4294   68.3266  -32.7142 H         3        0    0.0000
     23 H          21.7167   70.2612  -31.8191 H         3        0    0.0000
     24 H          20.2669   71.2592  -31.8010 H         3        0    0.0000
     25 C          20.3042   69.7329  -30.2394 C.3       4        0    0.0000
     26 C          20.9148   70.6404  -29.1658 C.3       4        0    0.0000
     27 H          19.2151   69.6850  -30.1165 H         4        0    0.0000
     28 H          20.6796   68.7085  -30.1240 H         4        0    0.0000
     29 H          22.0046   70.6832  -29.2848 H         4        0    0.0000
     30 H          20.5443   71.6661  -29.2851 H         4        0    0.0000
     31 C          20.5839   70.1493  -27.7143 C.3       5        0    0.0000
     32 C          21.1973   71.0549  -26.6407 C.3       5        0    0.0000
     33 H          19.4942   70.1088  -27.5946 H         5        0    0.0000
     34 H          20.9522   69.1227  -27.5958 H         5        0    0.0000
     35 H          22.2870   71.0959  -26.7609 H         5        0    0.0000
     36 H          20.8285   72.0813  -26.7588 H         5        0    0.0000
     37 C          20.8672   70.5632  -25.1893 C.3       6        0    0.0000
     38 C          21.4690   71.4767  -24.1157 C.3       6        0    0.0000
     39 H          19.7776   70.5125  -25.0723 H         6        0    0.0000
     40 H          21.2450   69.5405  -25.0679 H         6        0    0.0000
     41 H          22.5590   71.5247  -24.2305 H         6        0    0.0000
     42 H          21.0938   72.5001  -24.2392 H         6        0    0.0000
     43 C          21.1348   70.9877  -22.6642 C.3       7        0    0.0000
     44 C          22.2789   71.2606  -21.6815 C.3       7        0    0.0000
     45 H          20.2197   71.4882  -22.3244 H         7        0    0.0000
     46 H          20.9136   69.9136  -22.6951 H         7        0    0.0000
     47 H          23.2240   70.8818  -22.0900 H         7        0    0.0000
     48 H          22.4062   72.3414  -21.5432 H         7        0    0.0000
     49 C          22.0314   70.5979  -20.2826 C.3       8        0    0.0000
     50 C          22.1277   71.6096  -19.1354 C.3       8        0    0.0000
     51 H          21.0412   70.1255  -20.2854 H         8        0    0.0000
     52 H          22.7636   69.7939  -20.1377 H         8        0    0.0000
     53 H          23.1770   71.7575  -18.8514 H         8        0    0.0000
     54 H          21.7492   72.5860  -19.4621 H         8        0    0.0000
     55 C          21.3217   71.1525  -17.8709 C.3       9        0    0.0000
     56 C          22.1762   71.1730  -16.5987 C.3       9        0    0.0000
     57 H          20.4512   71.8092  -17.7500 H         9        0    0.0000
     58 H          20.9321   70.1420  -18.0461 H         9        0    0.0000
     59 H          23.1646   70.7430  -16.8025 H         9        0    0.0000
     60 H          22.3435   72.2077  -16.2746 H         9        0    0.0000
     61 C          21.5112   70.3766  -15.4235 C.3      10        0    0.0000
     62 C          21.8874   70.9449  -14.0507 C.3      10        0    0.0000
     63 H          20.4221   70.3978  -15.5538 H        10        0    0.0000
     64 H          21.8163   69.3251  -15.4918 H        10        0    0.0000
     65 H          22.9589   70.8007  -13.8647 H        10        0    0.0000
     66 H          21.7067   72.0268  -14.0291 H        10        0    0.0000
     67 C          21.0779   70.2741  -12.8879 C.3      11        0    0.0000
     68 C          21.5716   70.7163  -11.5060 C.3      11        0    0.0000
     69 H          20.0163   70.5244  -13.0059 H        11        0    0.0000
     70 H          21.1572   69.1842  -12.9847 H        11        0    0.0000
     71 H          22.6420   70.4993  -11.4018 H        11        0    0.0000
     72 H          21.4581   71.8019  -11.3956 H        11        0    0.0000
     73 C          20.7966   70.0063  -10.3430 C.3      12        0    0.0000
     74 C          21.2864   70.4529   -8.9610 C.3      12        0    0.0000
     75 H          19.7258   70.2198  -10.4496 H        12        0    0.0000
     76 H          20.9137   68.9209  -10.4509 H        12        0    0.0000
     77 H          22.3566   70.2371   -8.8534 H        12        0    0.0000
     78 H          21.1716   71.5387   -8.8540 H        12        0    0.0000
     79 C          20.5089   69.7456   -7.7980 C.3      13        0    0.0000
     80 C          20.9926   70.1988   -6.4161 C.3      13        0    0.0000
     81 H          19.4379   69.9560   -7.9093 H        13        0    0.0000
     82 H          20.6290   68.6600   -7.9012 H        13        0    0.0000
     83 H          22.0616   69.9807   -6.3015 H        13        0    0.0000
     84 H          20.8803   71.2855   -6.3160 H        13        0    0.0000
     85 C          20.2069   69.5004   -5.2531 C.3      14        0    0.0000
     86 C          20.6372   70.0103   -3.8733 C.3      14        0    0.0000
     87 H          19.1332   69.6713   -5.3993 H        14        0    0.0000
     88 H          20.3655   68.4169   -5.3200 H        14        0    0.0000
     89 H          21.7109   69.8391   -3.7270 H        14        0    0.0000
     90 H          20.4791   71.0938   -3.8065 H        14        0    0.0000
     91 C          19.8511   69.3123   -2.7104 C.3      15        0    0.0000
     92 C          20.4360   69.6439   -1.3331 C.3      15        0    0.0000
     93 H          18.8001   69.6233   -2.7575 H        15        0    0.0000
     94 H          19.8664   68.2277   -2.8744 H        15        0    0.0000
     95 H          21.5068   69.8651   -1.4225 H        15        0    0.0000
     96 H          19.9604   70.5465   -0.9298 H        15        0    0.0000
     97 C          20.2460   68.4721   -0.3092 C.3      16        0    0.0000
     98 C          21.2536   68.5390    0.8438 C.3      16        0    0.0000
     99 H          19.2222   68.5081    0.0834 H        16        0    0.0000
    100 H          20.3460   67.5179   -0.8412 H        16        0    0.0000
    101 H          21.1241   69.4741    1.4027 H        16        0    0.0000
    102 H          21.0703   67.7211    1.5515 H        16        0    0.0000
    103 C          22.7364   68.4510    0.3427 C.3      17        0    0.0000
    104 C          23.7401   68.4241    1.5007 C.3      17        0    0.0000
    105 H          22.8486   67.5502   -0.2733 H        17        0    0.0000
    106 H          22.9400   69.3076   -0.3117 H        17        0    0.0000
    107 H          23.7883   69.4098    1.9797 H        17        0    0.0000
    108 H          23.4081   67.7159    2.2699 H        17        0    0.0000
    109 C          25.1798   68.0203    1.0297 C.3      18        0    0.0000
    110 C          26.1492   67.8510    2.2048 C.3      18        0    0.0000
    111 H          25.1157   67.0866    0.4574 H        18        0    0.0000
    112 H          25.5544   68.7872    0.3405 H        18        0    0.0000
    113 H          26.2851   68.8092    2.7213 H        18        0    0.0000
    114 H          25.7303   67.1532    2.9404 H        18        0    0.0000
    115 C          27.5514   67.3207    1.7465 C.3      19        0    0.0000
    116 C          28.4321   66.9087    2.9312 C.3      19        0    0.0000
    117 H          27.4038   66.4674    1.0729 H        19        0    0.0000
    118 H          28.0507   68.1021    1.1603 H        19        0    0.0000
    119 H          28.7171   67.7937    3.5136 H        19        0    0.0000
    120 H          27.8698   66.2537    3.6082 H        19        0    0.0000
    121 C          29.7337   66.1645    2.4734 C.3      20        0    0.0000
    122 C          30.3154   65.2777    3.5799 C.3      20        0    0.0000
    123 H          29.5019   65.5586    1.5887 H        20        0    0.0000
    124 H          30.4752   66.9095    2.1596 H        20        0    0.0000
    125 H          31.4071   65.3814    3.6100 H        20        0    0.0000
    126 H          29.9410   65.6029    4.5584 H        20        0    0.0000
    127 C          29.9568   63.7649    3.3790 C.3      21        0    0.0000
    128 C          30.4058   62.8995    4.5616 C.3      21        0    0.0000
    129 H          28.8728   63.6744    3.2367 H        21        0    0.0000
    130 H          30.4267   63.4100    2.4534 H        21        0    0.0000
    131 H          31.3733   62.4323    4.3399 H        21        0    0.0000
    132 H          30.5543   63.5251    5.4505 H        21        0    0.0000
    133 C          29.3680   61.7752    4.9027 C.3      22        0    0.0000
    134 C          29.5722   61.2039    6.3102 C.3      22        0    0.0000
    135 H          28.3558   62.1874    4.8073 H        22        0    0.0000
    136 H          29.4544   60.9760    4.1561 H        22        0    0.0000
    137 H          30.3686   60.4495    6.2980 H        22        0    0.0000
    138 H          29.8997   61.9967    6.9941 H        22        0    0.0000
    139 C          28.2665   60.5511    6.8816 C.3      23        0    0.0000
    140 C          28.0706   60.8524    8.3715 C.3      23        0    0.0000
    141 H          27.4070   60.9184    6.3073 H        23        0    0.0000
    142 H          28.3133   59.4670    6.7200 H        23        0    0.0000
    143 H          28.6133   60.1172    8.9785 H        23        0    0.0000
    144 H          28.4926   61.8352    8.6152 H        23        0    0.0000
    145 C          26.5593   60.8342    8.7876 C.3      24        0    0.0000
    146 C          26.2191   61.9435    9.7889 C.3      24        0    0.0000
    147 H          25.9430   60.9393    7.8860 H        24        0    0.0000
    148 H          26.3228   59.8533    9.2182 H        24        0    0.0000
    149 H          26.6452   61.7067   10.7717 H        24        0    0.0000
    150 H          26.6715   62.8905    9.4693 H        24        0    0.0000
    151 C          24.6729   62.1495    9.9448 C.3      25        0    0.0000
    152 C          24.2001   61.9301   11.3861 C.3      25        0    0.0000
    153 H          24.4162   63.1638    9.6150 H        25        0    0.0000
    154 H          24.1542   61.4579    9.2694 H        25        0    0.0000
    155 H          24.9040   61.2778   11.9177 H        25        0    0.0000
    156 H          24.1855   62.8847   11.9266 H        25        0    0.0000
    157 C          22.7704   61.2905   11.4515 C.3      26        0    0.0000
    158 C          21.7352   62.2432   12.0597 C.3      26        0    0.0000
    159 H          22.4657   61.0012   10.4381 H        26        0    0.0000
    160 H          22.8230   60.3665   12.0405 H        26        0    0.0000
    161 H          21.7793   62.1972   13.1549 H        26        0    0.0000
    162 H          21.9654   63.2782   11.7783 H        26        0    0.0000
    163 C          20.2752   61.9070   11.5983 C.3      27        0    0.0000
    164 C          19.2567   62.0647   12.7328 C.3      27        0    0.0000
    165 H          20.0093   62.5630   10.7602 H        27        0    0.0000
    166 H          20.2536   60.8799   11.2136 H        27        0    0.0000
    167 H          19.6203   61.5617   13.6374 H        27        0    0.0000
    168 H          19.1389   63.1252   12.9877 H        27        0    0.0000
    169 C          17.8531   61.4763   12.3571 C.3      28        0    0.0000
    170 C          16.7702   61.8657   13.3693 C.3      28        0    0.0000
    171 H          17.5774   61.8310   11.3562 H        28        0    0.0000
    172 H          17.9331   60.3840   12.2933 H        28        0    0.0000
    173 H          17.0322   61.4867   14.3650 H        28        0    0.0000
    174 H          16.7096   62.9578   13.4539 H        28        0    0.0000
    175 C          15.3589   61.3106   12.9726 C.3      29        0    0.0000
    176 C          14.2665   62.3817   13.0645 C.3      29        0    0.0000
    177 H          15.4099   60.9119   11.9518 H        29        0    0.0000
    178 H          15.1138   60.4661   13.6287 H        29        0    0.0000
    179 H          13.7415   62.3022   14.0245 H        29        0    0.0000
    180 H          14.7167   63.3817   13.0336 H        29        0    0.0000
    181 C          13.2190   62.2630   11.9043 C.3      30        0    0.0000
    182 C          13.1199   63.5496   11.0773 C.3      30        0    0.0000
    183 H          13.5000   61.4216   11.2589 H        30        0    0.0000
    184 H          12.2406   62.0165   12.3351 H        30        0    0.0000
    185 H          12.2769   64.1580   11.4276 H        30        0    0.0000
    186 H          14.0241   64.1555   11.2145 H        30        0    0.0000
    187 C          12.9329   63.2599    9.5481 C.3      31        0    0.0000
    188 C          13.7593   64.2080    8.6720 C.3      31        0    0.0000
    189 H          13.2169   62.2193    9.3480 H        31        0    0.0000
    190 H          11.8683   63.3494    9.2988 H        31        0    0.0000
    191 H          13.3488   65.2239    8.7262 H        31        0    0.0000
    192 H          14.7891   64.2639    9.0459 H        31        0    0.0000
    193 C          13.7904   63.7549    7.1716 C.3      32        0    0.0000
    194 C          13.2792   64.8461    6.2246 C.3      32        0    0.0000
    195 H          14.8186   63.4785    6.9070 H        32        0    0.0000
    196 H          13.1827   62.8479    7.0635 H        32        0    0.0000
    197 H          12.5038   65.4423    6.7214 H        32        0    0.0000
    198 H          14.0935   65.5363    5.9716 H        32        0    0.0000
    199 C          12.6889   64.2534    4.8988 C.3      33        0    0.0000
    200 C          12.3613   65.3422    3.8711 C.3      33        0    0.0000
    201 H          13.4105   63.5429    4.4770 H        33        0    0.0000
    202 H          11.7855   63.6794    5.1396 H        33        0    0.0000
    203 H          11.6124   66.0320    4.2796 H        33        0    0.0000
    204 H          13.2564   65.9395    3.6576 H        33        0    0.0000
    205 C          11.8190   64.7462    2.5265 C.3      34        0    0.0000
    206 C          10.5528   65.4617    2.0428 C.3      34        0    0.0000
    207 H          12.6056   64.8179    1.7652 H        34        0    0.0000
    208 H          11.6158   63.6777    2.6698 H        34        0    0.0000
    209 H           9.9036   65.6952    2.8958 H        34        0    0.0000
    210 H          10.8166   66.4190    1.5764 H        34        0    0.0000
    211 C           9.7426   64.6033    1.0113 C.3      35        0    0.0000
    212 C           8.2368   64.6213    1.2962 C.3      35        0    0.0000
    213 H           9.9390   64.9852    0.0018 H        35        0    0.0000
    214 H          10.1179   63.5727    1.0367 H        35        0    0.0000
    215 H           8.0545   64.9146    2.3375 H        35        0    0.0000
    216 H           7.7437   65.3722    0.6665 H        35        0    0.0000
    217 C           7.5667   63.2276    1.0392 C.3      36        0    0.0000
    218 C           6.8146   62.7089    2.2698 C.3      36        0    0.0000
    219 H           6.8798   63.3170    0.1885 H        36        0    0.0000
    220 H           8.3431   62.5112    0.7432 H        36        0    0.0000
    221 H           7.1800   63.2120    3.1736 H        36        0    0.0000
    222 H           5.7470   62.9473    2.1862 H        36        0    0.0000
    223 C           6.9737   61.1603    2.4542 C.3      37        0    0.0000
    224 C           7.4856   60.7912    3.8508 C.3      37        0    0.0000
    225 H           6.0042   60.6809    2.2700 H        37        0    0.0000
    226 H           7.6627   60.7820    1.6888 H        37        0    0.0000
    227 H           7.9753   61.6573    4.3130 H        37        0    0.0000
    228 H           6.6440   60.5212    4.5008 H        37        0    0.0000
    229 C           8.5000   59.5965    3.8152 C.3      38        0    0.0000
    230 C           7.8188   58.2482    4.0739 C.3      38        0    0.0000
    231 H           8.9984   59.5848    2.8380 H        38        0    0.0000
    232 H           9.2810   59.7734    4.5651 H        38        0    0.0000
    233 H           7.9258   57.9690    5.1294 H        38        0    0.0000
    234 H           6.7425   58.3265    3.8764 H        38        0    0.0000
    235 C           8.4135   57.1019    3.1853 C.3      39        0    0.0000
    236 C           7.3286   56.1649    2.6432 C.3      39        0    0.0000
    237 H           8.9714   57.5517    2.3546 H        39        0    0.0000
    238 H           9.1387   56.5332    3.7804 H        39        0    0.0000
    239 H           6.8795   55.5939    3.4653 H        39        0    0.0000
    240 H           6.5200   56.7496    2.1872 H        39        0    0.0000
    241 C           7.8889   55.1608    1.5777 C.3      40        0    0.0000
    242 C           7.5824   53.7025    1.9362 C.3      40        0    0.0000
    243 H           7.4576   55.4062    0.5993 H        40        0    0.0000
    244 H           8.9726   55.3067    1.4898 H        40        0    0.0000
    245 H           7.7118   53.5449    3.0141 H        40        0    0.0000
    246 H           6.5346   53.4711    1.7075 H        40        0    0.0000
    247 C           8.5024   52.6949    1.1642 C.3      41        0    0.0000
    248 C           7.6990   51.7360    0.2788 C.3      41        0    0.0000
    249 H           9.2148   53.2632    0.5534 H        41        0    0.0000
    250 H           9.0946   52.1274    1.8927 H        41        0    0.0000
    251 H           7.4255   50.8387    0.8477 H        41        0    0.0000
    252 H           6.7599   52.2096   -0.0332 H        41        0    0.0000
    253 C           8.4945   51.3006   -0.9999 C.3      42        0    0.0000
    254 C           7.6002   51.2239   -2.2422 C.3      42        0    0.0000
    255 H           9.3114   52.0133   -1.1678 H        42        0    0.0000
    256 H           8.9608   50.3256   -0.8113 H        42        0    0.0000
    257 H           7.1349   50.2327   -2.3102 H        42        0    0.0000
    258 H           6.7826   51.9510   -2.1626 H        42        0    0.0000
    259 C           8.3954   51.5005   -3.5646 C.3      43        0    0.0000
    260 C           7.5388   51.2751   -4.8154 C.3      43        0    0.0000
    261 H           8.7673   52.5324   -3.5443 H        43        0    0.0000
    262 H           9.2772   50.8483   -3.5900 H        43        0    0.0000
    263 H           7.1386   50.2536   -4.8182 H        43        0    0.0000
    264 H           6.6753   51.9517   -4.8069 H        43        0    0.0000
    265 C           8.3475   51.5045   -6.1386 C.3      44        0    0.0000
    266 C           7.4973   51.2563   -7.3894 C.3      44        0    0.0000
    267 H           8.7332   52.5315   -6.1437 H        44        0    0.0000
    268 H           9.2205   50.8401   -6.1391 H        44        0    0.0000
    269 H           7.1098   50.2300   -7.3832 H        44        0    0.0000
    270 H           6.6255   51.9222   -7.3900 H        44        0    0.0000
    271 C           8.3069   51.4827   -8.7126 C.3      45        0    0.0000
    272 C           7.4555   51.2390   -9.9634 C.3      45        0    0.0000
    273 H           8.6974   52.5079   -8.7172 H        45        0    0.0000
    274 H           9.1769   50.8143   -8.7136 H        45        0    0.0000
    275 H           7.0666   50.2131   -9.9598 H        45        0    0.0000
    276 H           6.5845   51.9060   -9.9614 H        45        0    0.0000
    277 C           8.2643   51.4680  -11.2866 C.3      46        0    0.0000
    278 C           7.4131   51.2233  -12.5374 C.3      46        0    0.0000
    279 H           8.6525   52.4941  -11.2906 H        46        0    0.0000
    280 H           9.1357   50.8015  -11.2882 H        46        0    0.0000
    281 H           7.0251   50.1972  -12.5336 H        46        0    0.0000
    282 H           6.5416   51.8897  -12.5357 H        46        0    0.0000
    283 C           8.2219   51.4527  -13.8606 C.3      47        0    0.0000
    284 C           7.3690   51.2140  -15.1115 C.3      47        0    0.0000
    285 H           8.6137   52.4774  -13.8624 H        47        0    0.0000
    286 H           9.0909   50.7831  -13.8644 H        47        0    0.0000
    287 H           6.9782   50.1889  -15.1103 H        47        0    0.0000
    288 H           6.4993   51.8827  -15.1070 H        47        0    0.0000
    289 C           8.1773   51.4450  -16.4346 C.3      48        0    0.0000
    290 C           7.3291   51.1899  -17.6855 C.3      48        0    0.0000
    291 H           8.5577   52.4740  -16.4415 H        48        0    0.0000
    292 H           9.0537   50.7852  -16.4334 H        48        0    0.0000
    293 H           6.9462   50.1619  -17.6771 H        48        0    0.0000
    294 H           6.4543   51.8519  -17.6882 H        48        0    0.0000
    295 C           8.1386   51.4168  -19.0086 C.3      49        0    0.0000
    296 C           7.2756   51.2162  -20.2592 C.3      49        0    0.0000
    297 H           8.5559   52.4314  -18.9983 H        49        0    0.0000
    298 H           8.9906   50.7259  -19.0247 H        49        0    0.0000
    299 H           6.8630   50.1998  -20.2725 H        49        0    0.0000
    300 H           6.4204   51.9031  -20.2402 H        49        0    0.0000
    301 C           8.0830   51.4511  -21.5822 C.3      50        0    0.0000
    302 C           7.2517   51.1432  -22.8325 C.3      50        0    0.0000
    303 H           8.4270   52.4926  -21.6063 H        50        0    0.0000
    304 H           8.9821   50.8228  -21.5640 H        50        0    0.0000
    305 H           6.8976   50.1053  -22.8025 H        50        0    0.0000
    306 H           6.3588   51.7801  -22.8568 H        50        0    0.0000
    307 C           8.0645   51.3617  -24.1550 C.3      51        0    0.0000
    308 C           7.1871   51.2290  -25.4046 C.3      51        0    0.0000
    309 H           8.5283   52.3555  -24.1249 H        51        0    0.0000
    310 H           8.8836   50.6328  -24.1912 H        51        0    0.0000
    311 H           6.7415   50.2274  -25.4467 H        51        0    0.0000
    312 H           6.3550   51.9423  -25.3575 H        51        0    0.0000
    313 C           7.9931   51.4792  -26.7257 C.3      52        0    0.0000
    314 C           7.2278   51.0148  -27.9698 C.3      52        0    0.0000
    315 H           8.2223   52.5493  -26.8028 H        52        0    0.0000
    316 H           8.9545   50.9552  -26.6581 H        52        0    0.0000
    317 H           6.9616   49.9549  -27.8738 H        52        0    0.0000
    318 H           6.2856   51.5693  -28.0606 H        52        0    0.0000
    319 C           8.0579   51.2102  -29.2852 C.3      53        0    0.0000
    320 C           7.1630   51.3435  -30.5223 C.3      53        0    0.0000
    321 H           8.6862   52.1030  -29.1775 H        53        0    0.0000
    322 H           8.7387   50.3582  -29.4035 H        53        0    0.0000
    323 H           6.5973   50.4167  -30.6791 H        53        0    0.0000
    324 H           6.4251   52.1407  -30.3687 H        53        0    0.0000
    325 C           7.9852   51.6591  -31.8191 C.3      54        0    0.0000
    326 C           7.3487   51.0498  -33.0732 C.3      54        0    0.0000
    327 H           8.0671   52.7475  -31.9298 H        54        0    0.0000
    328 H           9.0060   51.2777  -31.6922 H        54        0    0.0000
    329 H           7.1530   49.9820  -32.9148 H        54        0    0.0000
    330 H           6.3782   51.5221  -33.2698 H        54        0    0.0000
    331 C           8.2568   51.2146  -34.3403 C.3      55        0    0.0000
    332 C           7.4394   51.2937  -35.6344 C.3      55        0    0.0000
    333 H           8.8654   52.1199  -34.2239 H        55        0    0.0000
    334 H           8.9549   50.3696  -34.3874 H        55        0    0.0000
    335 H           6.9168   50.3448  -35.8078 H        55        0    0.0000
    336 H           6.6666   52.0671  -35.5445 H        55        0    0.0000
    337 C           8.3323   51.6142  -36.8824 C.3      56        0    0.0000
    338 C           7.6870   51.1502  -38.1929 C.3      56        0    0.0000
    339 H           8.5176   52.6950  -36.9164 H        56        0    0.0000
    340 H           9.3086   51.1311  -36.7521 H        56        0    0.0000
    341 H           7.4143   50.0899  -38.1231 H        56        0    0.0000
    342 H           6.7566   51.7037  -38.3707 H        56        0    0.0000
    343 C           8.6359   51.3479  -39.4249 C.3      57        0    0.0000
    344 C           7.9578   52.1194  -40.5624 C.3      57        0    0.0000
    345 H           9.5374   51.8790  -39.0953 H        57        0    0.0000
    346 H           8.9629   50.3631  -39.7810 H        57        0    0.0000
    347 H           7.5011   51.4187  -41.2723 H        57        0    0.0000
    348 H           7.1448   52.7392  -40.1643 H        57        0    0.0000
    349 C           8.9623   53.0405  -41.3371 C.3      58        0    0.0000
    350 C           9.3892   52.4351  -42.6788 C.3      58        0    0.0000
    351 H           8.4929   54.0188  -41.4982 H        58        0    0.0000
    352 H           9.8425   53.2136  -40.7055 H        58        0    0.0000
    353 H           8.5107   52.0621  -43.2197 H        58        0    0.0000
    354 H           9.8447   53.2067  -43.3118 H        58        0    0.0000
    355 C          10.4105   51.2590  -42.5019 C.3      59        0    0.0000
    356 C          11.5525   51.3230  -43.5221 C.3      59        0    0.0000
    357 H          10.8146   51.2919  -41.4825 H        59        0    0.0000
    358 H           9.8736   50.3071  -42.5974 H        59        0    0.0000
    359 H          11.1484   51.2900  -44.5415 H        59        0    0.0000
    360 H          12.0893   52.2749  -43.4266 H        59        0    0.0000
    361 H          12.2626   50.5052  -43.3991 H        59        0    0.0000
    362 H          19.2798   70.5087  -40.4349 H         0        0    0.0000
@<TRIPOS>BOND
     1     1     2      1
     2     1     3      1
     3     1     4      1
     4     1   362      H
     5     2     5      1
     6     2     6      1
     7     2     7      1
     8     7     8      1
     9     7     9      1
    10     7    10      1
    11     8    11      1
    12     8    12      1
    13     8    13      1
    14    13    14      1
    15    13    15      1
    16    13    16      1
    17    14    17      1
    18    14    18      1
    19    14    19      1
    20    19    20      1
    21    19    21      1
    22    19    22      1
    23    20    23      1
    24    20    24      1
    25    20    25      1
    26    25    26      1
    27    25    27      1
    28    25    28      1
    29    26    29      1
    30    26    30      1
    31    26    31      1
    32    31    32      1
    33    31    33      1
    34    31    34      1
    35    32    35      1
    36    32    36      1
    37    32    37      1
    38    37    38      1
    39    37    39      1
    40    37    40      1
    41    38    41      1
    42    38    42      1
    43    38    43      1
    44    43    44      1
    45    43    45      1
    46    43    46      1
    47    44    47      1
    48    44    48      1
    49    44    49      1
    50    49    50      1
    51    49    51      1
    52    49    52      1
    53    50    53      1
    54    50    54      1
    55    50    55      1
    56    55    56      1
    57    55    57      1
    58    55    58      1
    59    56    59      1
    60    56    60      1
    61    56    61      1
    62    61    62      1
    63    61    63      1
    64    61    64      1
    65    62    65      1
    66    62    66      1
    67    62    67      1
    68    67    68      1
    69    67    69      1
    70    67    70      1
    71    68    71      1
    72    68    72      1
    73    68    73      1
    74    73    74      1
    75    73    75      1
    76    73    76      1
    77    74    77      1
    78    74    78      1
    79    74    79      1
    80    79    80      1
    81    79    81      1
    82    79    82      1
    83    80    83      1
    84    80    84      1
    85    80    85      1
    86    85    86      1
    87    85    87      1
    88    85    88      1
    89    86    89      1
    90    86    90      1
    91    86    91      1
    92    91    92      1
    93    91    93      1
    94    91    94      1
    95    92    95      1
    96    92    96      1
    97    92    97      1
    98    97    98      1
    99    97    99      1
   100    97   100      1
   101    98   101      1
   102    98   102      1
   103    98   103      1
   104   103   104      1
   105   103   105      1
   106   103   106      1
   107   104   107      1
   108   104   108      1
   109   104   109      1
   110   109   110      1
   111   109   111      1
   112   109   112      1
   113   110   113      1
   114   110   114      1
   115   110   115      1
   116   115   116      1
   117   115   117      1
   118   115   118      1
   119   116   119      1
   120   116   120      1
   121   116   121      1
   122   121   122      1
   123   121   123      1
   124   121   124      1
   125   122   125      1
   126   122   126      1
   127   122   127      1
   128   127   128      1
   129   127   129      1
   130   127   130      1
   131   128   131      1
   132   128   132      1
   133   128   133      1
   134   133   134      1
   135   133   135      1
   136   133   136      1
   137   134   137      1
   138   134   138      1
   139   134   139      1
   140   139   140      1
   141   139   141      1
   142   139   142      1
   143   140   143      1
   144   140   144      1
   145   140   145      1
   146   145   146      1
   147   145   147      1
   148   145   148      1
   149   146   149      1
   150   146   150      1
   151   146   151      1
   152   151   152      1
   153   151   153      1
   154   151   154      1
   155   152   155      1
   156   152   156      1
   157   152   157      1
   158   157   158      1
   159   157   159      1
   160   157   160      1
   161   158   161      1
   162   158   162      1
   163   158   163      1
   164   163   164      1
   165   163   165      1
   166   163   166      1
   167   164   167      1
   168   164   168      1
   169   164   169      1
   170   169   170      1
   171   169   171      1
   172   169   172      1
   173   170   173      1
   174   170   174      1
   175   170   175      1
   176   175   176      1
   177   175   177      1
   178   175   178      1
   179   176   179      1
   180   176   180      1
   181   176   181      1
   182   181   182      1
   183   181   183      1
   184   181   184      1
   185   182   185      1
   186   182   186      1
   187   182   187      1
   188   187   188      1
   189   187   189      1
   190   187   190      1
   191   188   191      1
   192   188   192      1
   193   188   193      1
   194   193   194      1
   195   193   195      1
   196   193   196      1
   197   194   197      1
   198   194   198      1
   199   194   199      1
   200   199   200      1
   201   199   201      1
   202   199   202      1
   203   200   203      1
   204   200   204      1
   205   200   205      1
   206   205   206      1
   207   205   207      1
   208   205   208      1
   209   206   209      1
   210   206   210      1
   211   206   211      1
   212   211   212      1
   213   211   213      1
   214   211   214      1
   215   212   215      1
   216   212   216      1
   217   212   217      1
   218   217   218      1
   219   217   219      1
   220   217   220      1
   221   218   221      1
   222   218   222      1
   223   218   223      1
   224   223   224      1
   225   223   225      1
   226   223   226      1
   227   224   227      1
   228   224   228      1
   229   224   229      1
   230   229   230      1
   231   229   231      1
   232   229   232      1
   233   230   233      1
   234   230   234      1
   235   230   235      1
   236   235   236      1
   237   235   237      1
   238   235   238      1
   239   236   239      1
   240   236   240      1
   241   236   241      1
   242   241   242      1
   243   241   243      1
   244   241   244      1
   245   242   245      1
   246   242   246      1
   247   242   247      1
   248   247   248      1
   249   247   249      1
   250   247   250      1
   251   248   251      1
   252   248   252      1
   253   248   253      1
   254   253   254      1
   255   253   255      1
   256   253   256      1
   257   254   257      1
   258   254   258      1
   259   254   259      1
   260   259   260      1
   261   259   261      1
   262   259   262      1
   263   260   263      1
   264   260   264      1
   265   260   265      1
   266   265   266      1
   267   265   267      1
   268   265   268      1
   269   266   269      1
   270   266   270      1
   271   266   271      1
   272   271   272      1
   273   271   273      1
   274   271   274      1
   275   272   275      1
   276   272   276      1
   277   272   277      1
   278   277   278      1
   279   277   279      1
   280   277   280      1
   281   278   281      1
   282   278   282      1
   283   278   283      1
   284   283   284      1
   285   283   285      1
   286   283   286      1
   287   284   287      1
   288   284   288      1
   289   284   289      1
   290   289   290      1
   291   289   291      1
   292   289   292      1
   293   290   293      1
   294   290   294      1
   295   290   295      1
   296   295   296      1
   297   295   297      1
   298   295   298      1
   299   296   299      1
   300   296   300      1
   301   296   301      1
   302   301   302      1
   303   301   303      1
   304   301   304      1
   305   302   305      1
   306   302   306      1
   307   302   307      1
   308   307   308      1
   309   307   309      1
   310   307   310      1
   311   308   311      1
   312   308   312      1
   313   308   313      1
   314   313   314      1
   315   313   315      1
   316   313   316      1
   317   314   317      1
   318   314   318      1
   319   314   319      1
   320   319   320      1
   321   319   321      1
   322   319   322      1
   323   320   323      1
   324   320   324      1
   325   320   325      1
   326   325   326      1
   327   325   327      1
   328   325   328      1
   329   326   329      1
   330   326   330      1
   331   326   331      1
   332   331   332      1
   333   331   333      1
   334   331   334      1
   335   332   335      1
   336   332   336      1
   337   332   337      1
   338   337   338      1
   339   337   339      1
   340   337   340      1
   341   338   341      1
   342   338   342      1
   343   338   343      1
   344   343   344      1
   345   343   345      1
   346   343   346      1
   347   344   347      1
   348   344   348      1
   349   344   349      1
   350   349   350      1
   351   349   351      1
   352   349   352      1
   353   350   353      1
   354   350   354      1
   355   350   355      1
   356   355   356      1
   357   355   357      1
   358   355   358      1
   359   356   359      1
   360   356   360      1
   361   356   361      H
