###
### Created by PolyChef-cpp17 on Thu Feb 27 19:40:28 2025
###

@<TRIPOS>MOLECULE
NO_INFO
296 295 1 0 0
SMALL
USER_CHARGES


@<TRIPOS>ATOM
      1 C         129.2798  157.1087  120.6551 C.3       0        0    0.0000
      2 C         128.4513  155.9575  120.0742 C.3       0        0    0.0000
      3 H         128.8875  158.0703  120.3015 H         0        0    0.0000
      4 H         130.3162  157.0421  120.3014 H         0        0    0.0000
      5 H         128.4077  155.1270  120.7897 H         0        0    0.0000
      6 H         127.4174  156.2846  119.9079 H         0        0    0.0000
      7 C         129.0376  155.4277  118.7203 C.3       1        0    0.0000
      8 C         129.6361  156.5515  117.8672 C.3       1        0    0.0000
      9 H         129.8028  154.6723  118.9378 H         1        0    0.0000
     10 H         128.2404  154.9179  118.1652 H         1        0    0.0000
     11 H         128.9455  157.4031  117.8286 H         1        0    0.0000
     12 H         130.5632  156.9183  118.3250 H         1        0    0.0000
     13 C         129.9458  156.0853  116.4029 C.3       2        0    0.0000
     14 C         129.8849  157.2424  115.3997 C.3       2        0    0.0000
     15 H         130.9398  155.6215  116.3822 H         2        0    0.0000
     16 H         129.2281  155.3049  116.1210 H         2        0    0.0000
     17 H         128.9632  157.8191  115.5462 H         2        0    0.0000
     18 H         130.7195  157.9335  115.5714 H         2        0    0.0000
     19 C         129.9387  156.7444  113.9143 C.3       3        0    0.0000
     20 C         129.8196  157.8966  112.9107 C.3       3        0    0.0000
     21 H         130.8802  156.2039  113.7565 H         3        0    0.0000
     22 H         129.1296  156.0210  113.7543 H         3        0    0.0000
     23 H         128.8838  158.4446  113.0764 H         3        0    0.0000
     24 H         130.6358  158.6138  113.0627 H         3        0    0.0000
     25 C         129.8562  157.3969  111.4253 C.3       4        0    0.0000
     26 C         129.9119  158.5557  110.4238 C.3       4        0    0.0000
     27 H         130.7275  156.7435  111.2934 H         4        0    0.0000
     28 H         128.9686  156.7800  111.2378 H         4        0    0.0000
     29 H         129.0270  159.1941  110.5376 H         4        0    0.0000
     30 H         130.7849  159.1879  110.6282 H         4        0    0.0000
     31 C         129.9866  158.0555  108.9400 C.3       5        0    0.0000
     32 C         128.9556  158.7472  108.0412 C.3       5        0    0.0000
     33 H         130.9991  158.2338  108.5572 H         5        0    0.0000
     34 H         129.8307  156.9696  108.9246 H         5        0    0.0000
     35 H         127.9921  158.8197  108.5608 H         5        0    0.0000
     36 H         129.2746  159.7742  107.8243 H         5        0    0.0000
     37 C         128.7433  157.9872  106.6867 C.3       6        0    0.0000
     38 C         129.1328  158.8407  105.4746 C.3       6        0    0.0000
     39 H         129.3358  157.0640  106.7026 H         6        0    0.0000
     40 H         127.6913  157.6852  106.6117 H         6        0    0.0000
     41 H         128.2762  159.4434  105.1482 H         6        0    0.0000
     42 H         129.9271  159.5453  105.7503 H         6        0    0.0000
     43 C         129.6264  157.9694  104.2685 C.3       7        0    0.0000
     44 C         129.0857  158.4755  102.9266 C.3       7        0    0.0000
     45 H         130.7234  157.9710  104.2568 H         7        0    0.0000
     46 H         129.3146  156.9303  104.4319 H         7        0    0.0000
     47 H         128.0065  158.6579  103.0007 H         7        0    0.0000
     48 H         129.5508  159.4359  102.6718 H         7        0    0.0000
     49 C         129.3480  157.4618  101.7600 C.3       8        0    0.0000
     50 C         129.1999  158.1129  100.3805 C.3       8        0    0.0000
     51 H         130.3568  157.0457  101.8733 H         8        0    0.0000
     52 H         128.6483  156.6224  101.8569 H         8        0    0.0000
     53 H         128.1691  158.4600  100.2371 H         8        0    0.0000
     54 H         129.8432  158.9988  100.3116 H         8        0    0.0000
     55 C         129.5683  157.1293   99.2167 C.3       9        0    0.0000
     56 C         129.3445  157.7542   97.8353 C.3       9        0    0.0000
     57 H         130.6171  156.8273   99.3275 H         9        0    0.0000
     58 H         128.9657  156.2183   99.3195 H         9        0    0.0000
     59 H         128.2992  158.0704   97.7303 H         9        0    0.0000
     60 H         129.9590  158.6565   97.7266 H         9        0    0.0000
     61 C         129.6918  156.7631   96.6715 C.3      10        0    0.0000
     62 C         129.4691  157.3884   95.2900 C.3      10        0    0.0000
     63 H         130.7368  156.4462   96.7769 H        10        0    0.0000
     64 H         129.0767  155.8611   96.7797 H        10        0    0.0000
     65 H         128.4234  157.7027   95.1836 H        10        0    0.0000
     66 H         130.0821  158.2919   95.1828 H        10        0    0.0000
     67 C         129.8201  156.3985   94.1262 C.3      11        0    0.0000
     68 C         129.5968  157.0236   92.7448 C.3      11        0    0.0000
     69 H         130.8659  156.0845   94.2324 H        11        0    0.0000
     70 H         129.2074  155.4949   94.2337 H        11        0    0.0000
     71 H         128.5515  157.3394   92.6393 H        11        0    0.0000
     72 H         130.2110  157.9262   92.6366 H        11        0    0.0000
     73 C         129.9451  156.0328   91.5810 C.3      12        0    0.0000
     74 C         129.7265  156.6596   90.1995 C.3      12        0    0.0000
     75 H         130.9893  155.7142   91.6885 H        12        0    0.0000
     76 H         129.3283  155.1318   91.6871 H        12        0    0.0000
     77 H         128.6817  156.9763   90.0912 H        12        0    0.0000
     78 H         130.3416  157.5618   90.0941 H        12        0    0.0000
     79 C         130.0776  155.6698   89.0357 C.3      13        0    0.0000
     80 C         129.8523  156.2942   87.6543 C.3      13        0    0.0000
     81 H         131.1238  155.3570   89.1411 H        13        0    0.0000
     82 H         129.4660  154.7654   89.1441 H        13        0    0.0000
     83 H         128.8026  156.5930   87.5432 H        13        0    0.0000
     84 H         130.4522  157.2069   87.5517 H        13        0    0.0000
     85 C         130.2239  155.3118   86.4905 C.3      14        0    0.0000
     86 C         130.0046  155.9384   85.1091 C.3      14        0    0.0000
     87 H         131.2723  155.0094   86.6043 H        14        0    0.0000
     88 H         129.6207  154.4009   86.5905 H        14        0    0.0000
     89 H         128.9391  156.1515   84.9576 H        14        0    0.0000
     90 H         130.5304  156.8991   85.0441 H        14        0    0.0000
     91 C         130.5041  155.0095   83.9493 C.3      15        0    0.0000
     92 C         130.2983  155.6425   82.5687 C.3      15        0    0.0000
     93 H         131.5668  154.7876   84.1068 H        15        0    0.0000
     94 H         129.9704  154.0528   84.0078 H        15        0    0.0000
     95 H         129.3803  156.2432   82.5633 H        15        0    0.0000
     96 H         131.1245  156.3277   82.3421 H        15        0    0.0000
     97 C         130.2060  154.5684   81.4305 C.3      16        0    0.0000
     98 C         129.9989  155.2013   80.0501 C.3      16        0    0.0000
     99 H         131.1243  153.9683   81.4353 H        16        0    0.0000
    100 H         129.3803  153.8826   81.6577 H        16        0    0.0000
    101 H         129.1676  155.9163   80.0850 H        16        0    0.0000
    102 H         130.8911  155.7694   79.7591 H        16        0    0.0000
    103 C         129.6986  154.1309   78.9448 C.3      17        0    0.0000
    104 C         129.5047  154.7626   77.5619 C.3      17        0    0.0000
    105 H         130.5253  153.4102   78.9166 H        17        0    0.0000
    106 H         128.8007  153.5693   79.2311 H        17        0    0.0000
    107 H         128.6834  155.4893   77.5921 H        17        0    0.0000
    108 H         130.4057  155.3174   77.2721 H        17        0    0.0000
    109 C         129.1930  153.6933   76.4588 C.3      18        0    0.0000
    110 C         128.9787  154.3269   75.0798 C.3      18        0    0.0000
    111 H         130.0214  152.9753   76.4182 H        18        0    0.0000
    112 H         128.3007  153.1284   76.7560 H        18        0    0.0000
    113 H         128.1818  155.0792   75.1312 H        18        0    0.0000
    114 H         129.8877  154.8522   74.7618 H        18        0    0.0000
    115 C         128.6014  153.2649   73.9901 C.3      19        0    0.0000
    116 C         128.2194  153.9132   72.6549 C.3      19        0    0.0000
    117 H         129.4514  152.5858   73.8491 H        19        0    0.0000
    118 H         127.7695  152.6550   74.3638 H        19        0    0.0000
    119 H         127.4180  154.6464   72.8083 H        19        0    0.0000
    120 H         129.0756  154.4634   72.2453 H        19        0    0.0000
    121 C         127.7438  152.8586   71.5970 C.3      20        0    0.0000
    122 C         126.4606  153.2930   70.8802 C.3      20        0    0.0000
    123 H         128.5479  152.7023   70.8672 H        20        0    0.0000
    124 H         127.5856  151.8976   72.1021 H        20        0    0.0000
    125 H         125.8141  153.8492   71.5703 H        20        0    0.0000
    126 H         126.7027  153.9755   70.0561 H        20        0    0.0000
    127 C         125.6582  152.0741   70.3076 C.3      21        0    0.0000
    128 C         125.7651  151.9733   68.7820 C.3      21        0    0.0000
    129 H         126.0334  151.1539   70.7725 H        21        0    0.0000
    130 H         124.6068  152.1715   70.6054 H        21        0    0.0000
    131 H         124.8898  152.4388   68.3121 H        21        0    0.0000
    132 H         126.6439  152.5271   68.4291 H        21        0    0.0000
    133 C         125.8726  150.4886   68.2907 C.3      22        0    0.0000
    134 C         124.5074  149.8997   67.9184 C.3      22        0    0.0000
    135 H         126.5472  150.4501   67.4264 H        22        0    0.0000
    136 H         126.3387  149.8874   69.0812 H        22        0    0.0000
    137 H         123.7058  150.4775   68.3949 H        22        0    0.0000
    138 H         124.3484  149.9739   66.8355 H        22        0    0.0000
    139 C         124.3713  148.3980   68.3472 C.3      23        0    0.0000
    140 C         122.9995  148.0903   68.9577 C.3      23        0    0.0000
    141 H         124.5435  147.7626   67.4696 H        23        0    0.0000
    142 H         125.1648  148.1625   69.0672 H        23        0    0.0000
    143 H         122.6684  148.9301   69.5812 H        23        0    0.0000
    144 H         122.2519  147.9737   68.1634 H        23        0    0.0000
    145 C         123.0163  146.7885   69.8309 C.3      24        0    0.0000
    146 C         121.7567  145.9386   69.6308 C.3      24        0    0.0000
    147 H         123.9090  146.2038   69.5767 H        24        0    0.0000
    148 H         123.1152  147.0718   70.8862 H        24        0    0.0000
    149 H         120.8887  146.4425   70.0736 H        24        0    0.0000
    150 H         121.5442  145.8273   68.5603 H        24        0    0.0000
    151 C         121.8940  144.5135   70.2695 C.3      25        0    0.0000
    152 C         120.6104  144.0692   70.9796 C.3      25        0    0.0000
    153 H         122.1554  143.7965   69.4815 H        25        0    0.0000
    154 H         122.7318  144.5227   70.9777 H        25        0    0.0000
    155 H         120.1998  144.8988   71.5684 H        25        0    0.0000
    156 H         119.8460  143.7988   70.2406 H        25        0    0.0000
    157 C         120.8501  142.8455   71.9295 C.3      26        0    0.0000
    158 C         119.8338  142.7919   73.0755 C.3      26        0    0.0000
    159 H         120.7987  141.9231   71.3377 H        26        0    0.0000
    160 H         121.8688  142.9048   72.3325 H        26        0    0.0000
    161 H         119.7817  143.7658   73.5778 H        26        0    0.0000
    162 H         118.8312  142.5873   72.6800 H        26        0    0.0000
    163 C         120.1920  141.6948   74.1364 C.3      27        0    0.0000
    164 C         119.3094  141.7852   75.3861 C.3      27        0    0.0000
    165 H         120.0868  140.7064   73.6723 H        27        0    0.0000
    166 H         121.2481  141.8020   74.4133 H        27        0    0.0000
    167 H         119.3735  142.7908   75.8200 H        27        0    0.0000
    168 H         118.2581  141.6248   75.1166 H        27        0    0.0000
    169 C         119.7166  140.7368   76.4782 C.3      28        0    0.0000
    170 C         118.8924  140.8852   77.7618 C.3      28        0    0.0000
    171 H         119.5907  139.7285   76.0647 H        28        0    0.0000
    172 H         120.7843  140.8549   76.7010 H        28        0    0.0000
    173 H         118.9947  141.9027   78.1590 H        28        0    0.0000
    174 H         117.8273  140.7376   77.5441 H        28        0    0.0000
    175 C         119.3280  139.8643   78.8689 C.3      29        0    0.0000
    176 C         118.7361  140.2072   80.2404 C.3      29        0    0.0000
    177 H         119.0146  138.8579   78.5649 H        29        0    0.0000
    178 H         120.4235  139.8497   78.9250 H        29        0    0.0000
    179 H         118.9676  141.2475   80.5006 H        29        0    0.0000
    180 H         117.6424  140.1263   80.2091 H        29        0    0.0000
    181 C         119.2798  139.2700   81.3733 C.3      30        0    0.0000
    182 C         118.9498  139.7992   82.7733 C.3      30        0    0.0000
    183 H         118.8523  138.2686   81.2393 H        30        0    0.0000
    184 H         120.3658  139.1672   81.2563 H        30        0    0.0000
    185 H         119.2775  140.8419   82.8682 H        30        0    0.0000
    186 H         117.8642  139.7946   82.9310 H        30        0    0.0000
    187 C         119.6283  138.9516   83.9041 C.3      31        0    0.0000
    188 C         119.2915  139.4758   85.3044 C.3      31        0    0.0000
    189 H         119.3055  137.9077   83.8055 H        31        0    0.0000
    190 H         120.7144  138.9614   83.7500 H        31        0    0.0000
    191 H         119.6284  140.5146   85.4083 H        31        0    0.0000
    192 H         118.2045  139.4808   85.4527 H        31        0    0.0000
    193 C         119.9519  138.6148   86.4358 C.3      32        0    0.0000
    194 C         119.5860  139.1174   87.8367 C.3      32        0    0.0000
    195 H         119.6356  137.5712   86.3161 H        32        0    0.0000
    196 H         121.0407  138.6313   86.3027 H        32        0    0.0000
    197 H         119.9178  140.1555   87.9624 H        32        0    0.0000
    198 H         118.4963  139.1174   87.9636 H        32        0    0.0000
    199 C         120.2265  138.2417   88.9682 C.3      33        0    0.0000
    200 C         119.8632  138.7462   90.3690 C.3      33        0    0.0000
    201 H         119.8930  137.2040   88.8437 H        33        0    0.0000
    202 H         121.3161  138.2399   88.8399 H        33        0    0.0000
    203 H         120.1981  139.7833   90.4940 H        33        0    0.0000
    204 H         118.7736  138.7494   90.4968 H        33        0    0.0000
    205 C         120.5020  137.8691   91.5005 C.3      34        0    0.0000
    206 C         120.1383  138.3734   92.9015 C.3      34        0    0.0000
    207 H         120.1672  136.8319   91.3755 H        34        0    0.0000
    208 H         121.5916  137.8661   91.3730 H        34        0    0.0000
    209 H         120.4807  139.4077   93.0296 H        34        0    0.0000
    210 H         119.0484  138.3847   93.0260 H        34        0    0.0000
    211 C         120.7670  137.4891   94.0329 C.3      35        0    0.0000
    212 C         120.4033  137.9934   95.4338 C.3      35        0    0.0000
    213 H         120.4246  136.4548   93.9048 H        35        0    0.0000
    214 H         121.8569  137.4778   93.9084 H        35        0    0.0000
    215 H         120.7286  139.0340   95.5553 H        35        0    0.0000
    216 H         119.3142  137.9864   95.5651 H        35        0    0.0000
    217 C         121.0542  137.1252   96.5653 C.3      36        0    0.0000
    218 C         120.6901  137.6291   97.9662 C.3      36        0    0.0000
    219 H         120.7293  136.0845   96.4436 H        36        0    0.0000
    220 H         122.1434  137.1326   96.4342 H        36        0    0.0000
    221 H         121.0258  136.9100   98.7236 H        36        0    0.0000
    222 H         121.2111  138.5719   98.1741 H        36        0    0.0000
    223 C         119.1481  137.8564   98.1336 C.3      37        0    0.0000
    224 C         118.7901  138.4168   99.5145 C.3      37        0    0.0000
    225 H         118.8044  138.5417   97.3489 H        37        0    0.0000
    226 H         118.6302  136.9035   97.9685 H        37        0    0.0000
    227 H         118.3387  139.4113   99.4113 H        37        0    0.0000
    228 H         118.0392  137.7784   99.9964 H        37        0    0.0000
    229 C         120.0401  138.5243  100.4543 C.3      38        0    0.0000
    230 C         119.6475  138.6918  101.9263 C.3      38        0    0.0000
    231 H         120.6551  137.6244  100.3291 H        38        0    0.0000
    232 H         120.6545  139.3733  100.1299 H        38        0    0.0000
    233 H         119.4023  139.7410  102.1331 H        38        0    0.0000
    234 H         118.7441  138.1085  102.1434 H        38        0    0.0000
    235 C         120.7884  138.2380  102.9009 C.3      39        0    0.0000
    236 C         120.3939  138.4011  104.3729 C.3      39        0    0.0000
    237 H         121.0360  137.1899  102.6917 H        39        0    0.0000
    238 H         121.6907  138.8239  102.6861 H        39        0    0.0000
    239 H         120.1744  139.4540  104.5891 H        39        0    0.0000
    240 H         119.4752  137.8387  104.5807 H        39        0    0.0000
    241 C         121.5189  137.9090  105.3475 C.3      40        0    0.0000
    242 C         121.1246  138.0728  106.8195 C.3      40        0    0.0000
    243 H         121.7380  136.8560  105.1316 H        40        0    0.0000
    244 H         122.4377  138.4711  105.1394 H        40        0    0.0000
    245 H         120.3573  137.3360  107.0876 H        40        0    0.0000
    246 H         121.9897  137.8757  107.4648 H        40        0    0.0000
    247 C         120.5779  139.5084  107.1319 C.3      41        0    0.0000
    248 C         119.9971  139.6136  108.5464 C.3      41        0    0.0000
    249 H         121.3923  140.2323  107.0049 H        41        0    0.0000
    250 H         119.8108  139.7637  106.3903 H        41        0    0.0000
    251 H         120.3544  140.5299  109.0325 H        41        0    0.0000
    252 H         118.9035  139.6877  108.4994 H        41        0    0.0000
    253 C         120.3823  138.3844  109.4398 C.3      42        0    0.0000
    254 C         120.0000  138.5919  110.9094 C.3      42        0    0.0000
    255 H         119.8849  137.4901  109.0443 H        42        0    0.0000
    256 H         121.4618  138.2088  109.3531 H        42        0    0.0000
    257 H         119.9249  139.6638  111.1308 H        42        0    0.0000
    258 H         119.0109  138.1597  111.1053 H        42        0    0.0000
    259 C         121.0375  137.9448  111.8903 C.3      43        0    0.0000
    260 C         120.6593  138.1592  113.3600 C.3      43        0    0.0000
    261 H         121.1083  136.8719  111.6728 H        43        0    0.0000
    262 H         122.0277  138.3728  111.6904 H        43        0    0.0000
    263 H         119.7905  137.5413  113.6189 H        43        0    0.0000
    264 H         121.4810  137.8357  114.0109 H        43        0    0.0000
    265 C         120.3252  139.6581  113.6750 C.3      44        0    0.0000
    266 C         119.9251  139.8686  115.1394 C.3      44        0    0.0000
    267 H         121.1999  140.2740  113.4317 H        44        0    0.0000
    268 H         119.5147  139.9864  113.0126 H        44        0    0.0000
    269 H         120.5852  140.6097  115.6069 H        44        0    0.0000
    270 H         118.9069  140.2730  115.1968 H        44        0    0.0000
    271 C         119.9887  138.5403  115.9696 C.3      45        0    0.0000
    272 C         119.9223  138.7952  117.4794 C.3      45        0    0.0000
    273 H         119.1605  137.8905  115.6610 H        45        0    0.0000
    274 H         120.9157  138.0102  115.7180 H        45        0    0.0000
    275 H         120.6000  139.6134  117.7529 H        45        0    0.0000
    276 H         118.9119  139.1150  117.7628 H        45        0    0.0000
    277 C         120.3026  137.5238  118.3139 C.3      46        0    0.0000
    278 C         120.2345  137.7782  119.8237 C.3      46        0    0.0000
    279 H         119.6258  136.7052  118.0394 H        46        0    0.0000
    280 H         121.3136  137.2048  118.0314 H        46        0    0.0000
    281 H         120.3431  136.8329  120.3698 H        46        0    0.0000
    282 H         121.0683  138.4196  120.1351 H        46        0    0.0000
    283 C         118.8877  138.4569  120.2516 C.3      47        0    0.0000
    284 C         118.9403  138.9999  121.6839 C.3      47        0    0.0000
    285 H         118.6624  139.2692  119.5495 H        47        0    0.0000
    286 H         118.0767  137.7243  120.1566 H        47        0    0.0000
    287 H         117.9863  139.4768  121.9407 H        47        0    0.0000
    288 H         119.0816  138.1755  122.3938 H        47        0    0.0000
    289 C         120.0953  140.0411  121.8825 C.3      48        0    0.0000
    290 C         120.1816  140.5443  123.3276 C.3      48        0    0.0000
    291 H         121.0446  139.5765  121.5886 H        48        0    0.0000
    292 H         119.9325  140.8843  121.1997 H        48        0    0.0000
    293 H         119.2322  141.0090  123.6215 H        48        0    0.0000
    294 H         120.3443  139.7012  124.0104 H        48        0    0.0000
    295 H         120.9846  141.2683  123.4657 H        48        0    0.0000
    296 H         129.2798  157.1087  121.7450 H         0        0    0.0000
@<TRIPOS>BOND
     1     1     2      1
     2     1     3      1
     3     1     4      1
     4     1   296      H
     5     2     5      1
     6     2     6      1
     7     2     7      1
     8     7     8      1
     9     7     9      1
    10     7    10      1
    11     8    11      1
    12     8    12      1
    13     8    13      1
    14    13    14      1
    15    13    15      1
    16    13    16      1
    17    14    17      1
    18    14    18      1
    19    14    19      1
    20    19    20      1
    21    19    21      1
    22    19    22      1
    23    20    23      1
    24    20    24      1
    25    20    25      1
    26    25    26      1
    27    25    27      1
    28    25    28      1
    29    26    29      1
    30    26    30      1
    31    26    31      1
    32    31    32      1
    33    31    33      1
    34    31    34      1
    35    32    35      1
    36    32    36      1
    37    32    37      1
    38    37    38      1
    39    37    39      1
    40    37    40      1
    41    38    41      1
    42    38    42      1
    43    38    43      1
    44    43    44      1
    45    43    45      1
    46    43    46      1
    47    44    47      1
    48    44    48      1
    49    44    49      1
    50    49    50      1
    51    49    51      1
    52    49    52      1
    53    50    53      1
    54    50    54      1
    55    50    55      1
    56    55    56      1
    57    55    57      1
    58    55    58      1
    59    56    59      1
    60    56    60      1
    61    56    61      1
    62    61    62      1
    63    61    63      1
    64    61    64      1
    65    62    65      1
    66    62    66      1
    67    62    67      1
    68    67    68      1
    69    67    69      1
    70    67    70      1
    71    68    71      1
    72    68    72      1
    73    68    73      1
    74    73    74      1
    75    73    75      1
    76    73    76      1
    77    74    77      1
    78    74    78      1
    79    74    79      1
    80    79    80      1
    81    79    81      1
    82    79    82      1
    83    80    83      1
    84    80    84      1
    85    80    85      1
    86    85    86      1
    87    85    87      1
    88    85    88      1
    89    86    89      1
    90    86    90      1
    91    86    91      1
    92    91    92      1
    93    91    93      1
    94    91    94      1
    95    92    95      1
    96    92    96      1
    97    92    97      1
    98    97    98      1
    99    97    99      1
   100    97   100      1
   101    98   101      1
   102    98   102      1
   103    98   103      1
   104   103   104      1
   105   103   105      1
   106   103   106      1
   107   104   107      1
   108   104   108      1
   109   104   109      1
   110   109   110      1
   111   109   111      1
   112   109   112      1
   113   110   113      1
   114   110   114      1
   115   110   115      1
   116   115   116      1
   117   115   117      1
   118   115   118      1
   119   116   119      1
   120   116   120      1
   121   116   121      1
   122   121   122      1
   123   121   123      1
   124   121   124      1
   125   122   125      1
   126   122   126      1
   127   122   127      1
   128   127   128      1
   129   127   129      1
   130   127   130      1
   131   128   131      1
   132   128   132      1
   133   128   133      1
   134   133   134      1
   135   133   135      1
   136   133   136      1
   137   134   137      1
   138   134   138      1
   139   134   139      1
   140   139   140      1
   141   139   141      1
   142   139   142      1
   143   140   143      1
   144   140   144      1
   145   140   145      1
   146   145   146      1
   147   145   147      1
   148   145   148      1
   149   146   149      1
   150   146   150      1
   151   146   151      1
   152   151   152      1
   153   151   153      1
   154   151   154      1
   155   152   155      1
   156   152   156      1
   157   152   157      1
   158   157   158      1
   159   157   159      1
   160   157   160      1
   161   158   161      1
   162   158   162      1
   163   158   163      1
   164   163   164      1
   165   163   165      1
   166   163   166      1
   167   164   167      1
   168   164   168      1
   169   164   169      1
   170   169   170      1
   171   169   171      1
   172   169   172      1
   173   170   173      1
   174   170   174      1
   175   170   175      1
   176   175   176      1
   177   175   177      1
   178   175   178      1
   179   176   179      1
   180   176   180      1
   181   176   181      1
   182   181   182      1
   183   181   183      1
   184   181   184      1
   185   182   185      1
   186   182   186      1
   187   182   187      1
   188   187   188      1
   189   187   189      1
   190   187   190      1
   191   188   191      1
   192   188   192      1
   193   188   193      1
   194   193   194      1
   195   193   195      1
   196   193   196      1
   197   194   197      1
   198   194   198      1
   199   194   199      1
   200   199   200      1
   201   199   201      1
   202   199   202      1
   203   200   203      1
   204   200   204      1
   205   200   205      1
   206   205   206      1
   207   205   207      1
   208   205   208      1
   209   206   209      1
   210   206   210      1
   211   206   211      1
   212   211   212      1
   213   211   213      1
   214   211   214      1
   215   212   215      1
   216   212   216      1
   217   212   217      1
   218   217   218      1
   219   217   219      1
   220   217   220      1
   221   218   221      1
   222   218   222      1
   223   218   223      1
   224   223   224      1
   225   223   225      1
   226   223   226      1
   227   224   227      1
   228   224   228      1
   229   224   229      1
   230   229   230      1
   231   229   231      1
   232   229   232      1
   233   230   233      1
   234   230   234      1
   235   230   235      1
   236   235   236      1
   237   235   237      1
   238   235   238      1
   239   236   239      1
   240   236   240      1
   241   236   241      1
   242   241   242      1
   243   241   243      1
   244   241   244      1
   245   242   245      1
   246   242   246      1
   247   242   247      1
   248   247   248      1
   249   247   249      1
   250   247   250      1
   251   248   251      1
   252   248   252      1
   253   248   253      1
   254   253   254      1
   255   253   255      1
   256   253   256      1
   257   254   257      1
   258   254   258      1
   259   254   259      1
   260   259   260      1
   261   259   261      1
   262   259   262      1
   263   260   263      1
   264   260   264      1
   265   260   265      1
   266   265   266      1
   267   265   267      1
   268   265   268      1
   269   266   269      1
   270   266   270      1
   271   266   271      1
   272   271   272      1
   273   271   273      1
   274   271   274      1
   275   272   275      1
   276   272   276      1
   277   272   277      1
   278   277   278      1
   279   277   279      1
   280   277   280      1
   281   278   281      1
   282   278   282      1
   283   278   283      1
   284   283   284      1
   285   283   285      1
   286   283   286      1
   287   284   287      1
   288   284   288      1
   289   284   289      1
   290   289   290      1
   291   289   291      1
   292   289   292      1
   293   290   293      1
   294   290   294      1
   295   290   295      H
