###
### Created by PolyChef-cpp17 on Thu Feb 27 19:40:28 2025
###

@<TRIPOS>MOLECULE
NO_INFO
344 343 1 0 0
SMALL
USER_CHARGES


@<TRIPOS>ATOM
      1 C         139.2798   35.8687  -39.3449 C.3       0        0    0.0000
      2 C         137.8706   35.7082  -38.7641 C.3       0        0    0.0000
      3 H         139.9271   35.0566  -38.9913 H         0        0    0.0000
      4 H         139.7280   36.8055  -38.9913 H         0        0    0.0000
      5 H         137.3724   36.6841  -38.7106 H         0        0    0.0000
      6 H         137.2609   35.0791  -39.4244 H         0        0    0.0000
      7 C         137.8873   35.0702  -37.3323 C.3       1        0    0.0000
      8 C         139.1649   35.4135  -36.5583 C.3       1        0    0.0000
      9 H         137.0069   35.4200  -36.7790 H         1        0    0.0000
     10 H         137.7868   33.9820  -37.4288 H         1        0    0.0000
     11 H         140.0453   35.2371  -37.1885 H         1        0    0.0000
     12 H         139.1721   36.4792  -36.2980 H         1        0    0.0000
     13 C         139.3075   34.5713  -35.2438 C.3       2        0    0.0000
     14 C         140.2044   35.2585  -34.2082 C.3       2        0    0.0000
     15 H         138.3089   34.4011  -34.8228 H         2        0    0.0000
     16 H         139.7144   33.5848  -35.4983 H         2        0    0.0000
     17 H         141.2591   35.1370  -34.4843 H         2        0    0.0000
     18 H         140.0046   36.3371  -34.1942 H         2        0    0.0000
     19 C         139.9910   34.6863  -32.7644 C.3       3        0    0.0000
     20 C         140.6180   35.5784  -31.6874 C.3       3        0    0.0000
     21 H         138.9146   34.5774  -32.5828 H         3        0    0.0000
     22 H         140.4221   33.6786  -32.7161 H         3        0    0.0000
     23 H         141.7073   35.6113  -31.8136 H         3        0    0.0000
     24 H         140.2571   36.6088  -31.7955 H         3        0    0.0000
     25 C         140.2922   35.0783  -30.2379 C.3       4        0    0.0000
     26 C         140.9027   35.9816  -29.1608 C.3       4        0    0.0000
     27 H         139.2028   35.0316  -30.1165 H         4        0    0.0000
     28 H         140.6659   34.0530  -30.1252 H         4        0    0.0000
     29 H         141.9925   36.0246  -29.2793 H         4        0    0.0000
     30 H         140.5326   37.0079  -29.2763 H         4        0    0.0000
     31 C         140.5713   35.4852  -27.7112 C.3       5        0    0.0000
     32 C         141.1706   36.3961  -26.6341 C.3       5        0    0.0000
     33 H         139.4816   35.4327  -27.5959 H         5        0    0.0000
     34 H         140.9503   34.4625  -27.5924 H         5        0    0.0000
     35 H         142.2605   36.4469  -26.7482 H         5        0    0.0000
     36 H         140.7932   37.4192  -26.7542 H         5        0    0.0000
     37 C         140.8367   35.9013  -25.1846 C.3       6        0    0.0000
     38 C         141.4668   36.7913  -24.1075 C.3       6        0    0.0000
     39 H         139.7469   35.8764  -25.0617 H         6        0    0.0000
     40 H         141.1900   34.8687  -25.0733 H         6        0    0.0000
     41 H         142.5560   36.8224  -24.2351 H         6        0    0.0000
     42 H         141.1076   37.8224  -24.2140 H         6        0    0.0000
     43 C         141.1420   36.2902  -22.6581 C.3       7        0    0.0000
     44 C         141.0259   37.4448  -21.6568 C.3       7        0    0.0000
     45 H         140.2061   35.7184  -22.6830 H         7        0    0.0000
     46 H         141.9280   35.5941  -22.3401 H         7        0    0.0000
     47 H         141.9991   37.9361  -21.5347 H         7        0    0.0000
     48 H         140.3344   38.2060  -22.0388 H         7        0    0.0000
     49 C         140.5227   36.9645  -20.2519 C.3       8        0    0.0000
     50 C         141.4588   37.4004  -19.1194 C.3       8        0    0.0000
     51 H         139.5151   37.3637  -20.0818 H         8        0    0.0000
     52 H         140.4305   35.8714  -20.2641 H         8        0    0.0000
     53 H         142.5013   37.3683  -19.4597 H         8        0    0.0000
     54 H         141.2510   38.4403  -18.8387 H         8        0    0.0000
     55 C         141.3144   36.4952  -17.8476 C.3       9        0    0.0000
     56 C         141.0426   37.3133  -16.5803 C.3       9        0    0.0000
     57 H         140.5008   35.7784  -18.0144 H         9        0    0.0000
     58 H         142.2325   35.9071  -17.7261 H         9        0    0.0000
     59 H         141.9595   37.8214  -16.2568 H         9        0    0.0000
     60 H         140.3049   38.0977  -16.7900 H         9        0    0.0000
     61 C         140.5145   36.4249  -15.4017 C.3      10        0    0.0000
     62 C         140.9356   36.9674  -14.0315 C.3      10        0    0.0000
     63 H         139.4206   36.3686  -15.4639 H        10        0    0.0000
     64 H         140.8905   35.4027  -15.5333 H        10        0    0.0000
     65 H         142.0161   37.1569  -14.0179 H        10        0    0.0000
     66 H         140.4446   37.9297  -13.8408 H        10        0    0.0000
     67 C         140.5813   35.9796  -12.8669 C.3      11        0    0.0000
     68 C         140.8224   36.5994  -11.4861 C.3      11        0    0.0000
     69 H         139.5310   35.6785  -12.9659 H        11        0    0.0000
     70 H         141.1822   35.0689  -12.9806 H        11        0    0.0000
     71 H         141.8811   36.8631  -11.3718 H        11        0    0.0000
     72 H         140.2531   37.5320  -11.3877 H        11        0    0.0000
     73 C         140.4138   35.6328  -10.3215 C.3      12        0    0.0000
     74 C         140.6690   36.2468   -8.9405 C.3      12        0    0.0000
     75 H         139.3523   35.3779  -10.4295 H        12        0    0.0000
     76 H         140.9751   34.6960  -10.4262 H        12        0    0.0000
     77 H         141.7299   36.5049   -8.8338 H        12        0    0.0000
     78 H         140.1050   37.1818   -8.8346 H        12        0    0.0000
     79 C         140.2650   35.2783   -7.7759 C.3      13        0    0.0000
     80 C         140.5235   35.8908   -6.3950 C.3      13        0    0.0000
     81 H         139.2034   35.0222   -7.8812 H        13        0    0.0000
     82 H         140.8270   34.3423   -7.8834 H        13        0    0.0000
     83 H         141.5845   36.1493   -6.2908 H        13        0    0.0000
     84 H         139.9595   36.8255   -6.2865 H        13        0    0.0000
     85 C         140.1229   34.9209   -5.2304 C.3      14        0    0.0000
     86 C         140.4007   35.5253   -3.8496 C.3      14        0    0.0000
     87 H         139.0581   34.6745   -5.3259 H        14        0    0.0000
     88 H         140.6755   33.9805   -5.3475 H        14        0    0.0000
     89 H         141.4638   35.7797   -3.7574 H        14        0    0.0000
     90 H         139.8411   36.4613   -3.7292 H        14        0    0.0000
     91 C         140.0115   34.5505   -2.6852 C.3      15        0    0.0000
     92 C         140.2424   35.1739   -1.3042 C.3      15        0    0.0000
     93 H         138.9577   34.2671   -2.7986 H        15        0    0.0000
     94 H         140.5981   33.6288   -2.7847 H        15        0    0.0000
     95 H         141.3094   35.3840   -1.1600 H        15        0    0.0000
     96 H         139.7195   36.1358   -1.2335 H        15        0    0.0000
     97 C         139.7490   34.2440   -0.1426 C.3      16        0    0.0000
     98 C         139.8830   34.9099    1.2313 C.3      16        0    0.0000
     99 H         138.7026   33.9714   -0.3281 H        16        0    0.0000
    100 H         140.3264   33.3115   -0.1667 H        16        0    0.0000
    101 H         139.4397   34.2700    2.0043 H        16        0    0.0000
    102 H         140.9425   35.0286    1.4900 H        16        0    0.0000
    103 C         139.1904   36.3154    1.2804 C.3      17        0    0.0000
    104 C         139.4876   37.0641    2.5843 C.3      17        0    0.0000
    105 H         139.5297   36.9070    0.4211 H        17        0    0.0000
    106 H         138.1081   36.1805    1.1624 H        17        0    0.0000
    107 H         140.4243   37.6274    2.4895 H        17        0    0.0000
    108 H         138.6975   37.7983    2.7850 H        17        0    0.0000
    109 C         139.6020   36.0965    3.8123 C.3      18        0    0.0000
    110 C         139.7554   36.8535    5.1360 C.3      18        0    0.0000
    111 H         138.7096   35.4591    3.8446 H        18        0    0.0000
    112 H         140.4597   35.4299    3.6585 H        18        0    0.0000
    113 H         140.8047   37.1342    5.2895 H        18        0    0.0000
    114 H         139.1809   37.7876    5.1039 H        18        0    0.0000
    115 C         139.2742   36.0063    6.3641 C.3      19        0    0.0000
    116 C         140.2241   36.1266    7.5608 C.3      19        0    0.0000
    117 H         138.2672   36.3362    6.6485 H        19        0    0.0000
    118 H         139.1868   34.9567    6.0572 H        19        0    0.0000
    119 H         141.2655   36.1302    7.2155 H        19        0    0.0000
    120 H         140.0601   37.0806    8.0769 H        19        0    0.0000
    121 C         140.0365   34.9575    8.5882 C.3      20        0    0.0000
    122 C         139.5037   35.4505    9.9381 C.3      20        0    0.0000
    123 H         139.3490   34.2175    8.1600 H        20        0    0.0000
    124 H         140.9993   34.4502    8.7263 H        20        0    0.0000
    125 H         140.3337   35.5897   10.6419 H        20        0    0.0000
    126 H         139.0245   36.4300    9.8183 H        20        0    0.0000
    127 C         138.4689   34.4553   10.5676 C.3      21        0    0.0000
    128 C         137.1678   35.1532   10.9786 C.3      21        0    0.0000
    129 H         138.2565   33.6603    9.8421 H        21        0    0.0000
    130 H         138.9281   33.9721   11.4390 H        21        0    0.0000
    131 H         137.1932   35.3970   12.0479 H        21        0    0.0000
    132 H         137.0649   36.1040   10.4411 H        21        0    0.0000
    133 C         135.9041   34.2711   10.6913 C.3      22        0    0.0000
    134 C         135.5343   33.3806   11.8827 C.3      22        0    0.0000
    135 H         135.0636   34.9292   10.4383 H        22        0    0.0000
    136 H         136.0981   33.6532    9.8058 H        22        0    0.0000
    137 H         135.9791   33.7794   12.8028 H        22        0    0.0000
    138 H         134.4473   33.3834   12.0313 H        22        0    0.0000
    139 C         136.0140   31.9007   11.6898 C.3      23        0    0.0000
    140 C         134.9718   30.8849   12.1702 C.3      23        0    0.0000
    141 H         136.2375   31.7370   10.6283 H        23        0    0.0000
    142 H         136.9555   31.7603   12.2352 H        23        0    0.0000
    143 H         134.9305   30.8782   13.2665 H        23        0    0.0000
    144 H         133.9738   31.1753   11.8192 H        23        0    0.0000
    145 C         135.2815   29.4328   11.6674 C.3      24        0    0.0000
    146 C         134.4093   28.3799   12.3599 C.3      24        0    0.0000
    147 H         135.1274   29.3941   10.5819 H        24        0    0.0000
    148 H         136.3427   29.2167   11.8428 H        24        0    0.0000
    149 H         134.5011   28.4727   13.4491 H        24        0    0.0000
    150 H         133.3527   28.5480   12.1173 H        24        0    0.0000
    151 C         134.7973   26.9194   11.9428 C.3      25        0    0.0000
    152 C         133.9593   25.8646   12.6737 C.3      25        0    0.0000
    153 H         134.6697   26.8158   10.8581 H        25        0    0.0000
    154 H         135.8631   26.7635   12.1509 H        25        0    0.0000
    155 H         134.0961   25.9606   13.7579 H        25        0    0.0000
    156 H         132.8928   26.0277   12.4751 H        25        0    0.0000
    157 C         134.3357   24.4047   12.2442 C.3      26        0    0.0000
    158 C         133.1007   23.5614   11.9084 C.3      26        0    0.0000
    159 H         135.0054   24.4529   11.3766 H        26        0    0.0000
    160 H         134.9042   23.9329   13.0552 H        26        0    0.0000
    161 H         132.8121   22.9551   12.7759 H        26        0    0.0000
    162 H         132.2488   24.2149   11.6833 H        26        0    0.0000
    163 C         133.3450   22.6106   10.6862 C.3      27        0    0.0000
    164 C         133.8670   21.2350   11.1156 C.3      27        0    0.0000
    165 H         132.4052   22.4998   10.1311 H        27        0    0.0000
    166 H         134.0594   23.0880   10.0041 H        27        0    0.0000
    167 H         133.6304   21.0558   12.1717 H        27        0    0.0000
    168 H         133.3648   20.4462   10.5419 H        27        0    0.0000
    169 C         135.4157   21.0981   10.9144 C.3      28        0    0.0000
    170 C         135.7878   19.8546   10.0994 C.3      28        0    0.0000
    171 H         135.7886   22.0008   10.4148 H        28        0    0.0000
    172 H         135.8982   21.0608   11.8989 H        28        0    0.0000
    173 H         136.0618   19.0322   10.7717 H        28        0    0.0000
    174 H         134.9219   19.5120    9.5193 H        28        0    0.0000
    175 C         136.9798   20.1227    9.1172 C.3      29        0    0.0000
    176 C         137.3958   18.8623    8.3508 C.3      29        0    0.0000
    177 H         136.6873   20.9117    8.4133 H        29        0    0.0000
    178 H         137.8300   20.5119    9.6911 H        29        0    0.0000
    179 H         137.7025   18.0784    9.0543 H        29        0    0.0000
    180 H         136.5416   18.4647    7.7888 H        29        0    0.0000
    181 C         138.5740   19.1353    7.3534 C.3      30        0    0.0000
    182 C         138.9732   17.8807    6.5687 C.3      30        0    0.0000
    183 H         138.2741   19.9322    6.6616 H        30        0    0.0000
    184 H         139.4344   19.5155    7.9180 H        30        0    0.0000
    185 H         139.8816   18.0752    5.9852 H        30        0    0.0000
    186 H         139.2124   17.0642    7.2612 H        30        0    0.0000
    187 C         137.8405   17.4029    5.5960 C.3      31        0    0.0000
    188 C         137.9969   15.9303    5.2011 C.3      31        0    0.0000
    189 H         136.8687   17.5614    6.0799 H        31        0    0.0000
    190 H         137.8533   18.0360    4.7002 H        31        0    0.0000
    191 H         138.8505   15.8115    4.5223 H        31        0    0.0000
    192 H         138.2139   15.3237    6.0891 H        31        0    0.0000
    193 C         136.7132   15.3628    4.5029 C.3      32        0    0.0000
    194 C         136.3591   13.9548    4.9941 C.3      32        0    0.0000
    195 H         135.8769   16.0478    4.6898 H        32        0    0.0000
    196 H         136.8759   15.3529    3.4180 H        32        0    0.0000
    197 H         136.9596   13.2080    4.4600 H        32        0    0.0000
    198 H         136.6055   13.8547    6.0584 H        32        0    0.0000
    199 C         134.8409   13.6199    4.7933 C.3      33        0    0.0000
    200 C         134.6127   12.6165    3.6575 C.3      33        0    0.0000
    201 H         134.4393   13.2218    5.7334 H        33        0    0.0000
    202 H         134.2976   14.5506    4.5878 H        33        0    0.0000
    203 H         135.5378   12.0637    3.4523 H        33        0    0.0000
    204 H         133.8620   11.8744    3.9563 H        33        0    0.0000
    205 C         134.1366   13.3129    2.3362 C.3      34        0    0.0000
    206 C         132.7792   12.7856    1.8582 C.3      34        0    0.0000
    207 H         134.0808   14.3951    2.5072 H        34        0    0.0000
    208 H         134.8958   13.1554    1.5601 H        34        0    0.0000
    209 H         132.9240   12.0134    1.0926 H        34        0    0.0000
    210 H         132.2468   12.3084    2.6903 H        34        0    0.0000
    211 C         131.8759   13.9215    1.2656 C.3      35        0    0.0000
    212 C         130.4097   13.7779    1.6884 C.3      35        0    0.0000
    213 H         132.2683   14.8923    1.5928 H        35        0    0.0000
    214 H         131.9555   13.9021    0.1716 H        35        0    0.0000
    215 H         129.9548   12.9176    1.1820 H        35        0    0.0000
    216 H         130.3466   13.5790    2.7655 H        35        0    0.0000
    217 C         129.5687   15.0596    1.3612 C.3      36        0    0.0000
    218 C         128.3780   14.7550    0.4455 C.3      36        0    0.0000
    219 H         129.2166   15.5012    2.3017 H        36        0    0.0000
    220 H         130.2247   15.8024    0.8906 H        36        0    0.0000
    221 H         128.5436   13.8090   -0.0848 H        36        0    0.0000
    222 H         127.4672   14.6257    1.0433 H        36        0    0.0000
    223 C         128.1337   15.8892   -0.6087 C.3      37        0    0.0000
    224 C         128.1086   15.3524   -2.0440 C.3      37        0    0.0000
    225 H         127.1848   16.3887   -0.3772 H        37        0    0.0000
    226 H         128.9216   16.6453   -0.5035 H        37        0    0.0000
    227 H         128.6123   14.3789   -2.0905 H        37        0    0.0000
    228 H         127.0729   15.1869   -2.3657 H        37        0    0.0000
    229 C         128.8019   16.3288   -3.0557 C.3      38        0    0.0000
    230 C         129.0058   15.6891   -4.4334 C.3      38        0    0.0000
    231 H         128.1903   17.2348   -3.1484 H        38        0    0.0000
    232 H         129.7676   16.6419   -2.6397 H        38        0    0.0000
    233 H         129.6726   14.8219   -4.3506 H        38        0    0.0000
    234 H         128.0495   15.3154   -4.8199 H        38        0    0.0000
    235 C         129.6120   16.6951   -5.4717 C.3      39        0    0.0000
    236 C         129.5029   16.1803   -6.9112 C.3      39        0    0.0000
    237 H         129.0936   17.6572   -5.3760 H        39        0    0.0000
    238 H         130.6632   16.8769   -5.2158 H        39        0    0.0000
    239 H         130.1179   15.2805   -7.0365 H        39        0    0.0000
    240 H         128.4682   15.8875   -7.1286 H        39        0    0.0000
    241 C         129.9560   17.2523   -7.9615 C.3      40        0    0.0000
    242 C         129.7828   16.7622   -9.4033 C.3      40        0    0.0000
    243 H         129.3753   18.1695   -7.8036 H        40        0    0.0000
    244 H         131.0063   17.5083   -7.7748 H        40        0    0.0000
    245 H         130.3887   15.8631   -9.5704 H        40        0    0.0000
    246 H         128.7387   16.4759   -9.5804 H        40        0    0.0000
    247 C         130.1934   17.8507  -10.4541 C.3      41        0    0.0000
    248 C         130.0173   17.3617  -11.8960 C.3      41        0    0.0000
    249 H         129.5890   18.7506  -10.2856 H        41        0    0.0000
    250 H         131.2382   18.1354  -10.2784 H        41        0    0.0000
    251 H         130.6329   16.4701  -12.0686 H        41        0    0.0000
    252 H         128.9756   17.0633  -12.0674 H        41        0    0.0000
    253 C         130.4086   18.4572  -12.9468 C.3      42        0    0.0000
    254 C         130.2323   17.9683  -14.3886 C.3      42        0    0.0000
    255 H         129.7932   19.3488  -12.7739 H        42        0    0.0000
    256 H         131.4504   18.7554  -12.7755 H        42        0    0.0000
    257 H         130.8233   17.0587  -14.5524 H        42        0    0.0000
    258 H         129.1840   17.6996  -14.5692 H        42        0    0.0000
    259 C         130.6652   19.0482  -15.4393 C.3      43        0    0.0000
    260 C         130.4849   18.5609  -16.8811 C.3      43        0    0.0000
    261 H         130.0763   19.9589  -15.2735 H        43        0    0.0000
    262 H         131.7144   19.3146  -15.2607 H        43        0    0.0000
    263 H         130.6412   19.3910  -17.5811 H        43        0    0.0000
    264 H         131.2404   17.8018  -17.1190 H        43        0    0.0000
    265 C         129.0616   17.9522  -17.1289 C.3      44        0    0.0000
    266 C         128.9430   17.2952  -18.5085 C.3      44        0    0.0000
    267 H         128.8497   17.2170  -16.3427 H        44        0    0.0000
    268 H         128.3138   18.7482  -17.0257 H        44        0    0.0000
    269 H         128.9058   16.2038  -18.4035 H        44        0    0.0000
    270 H         128.0046   17.5976  -18.9897 H        44        0    0.0000
    271 C         130.1381   17.6718  -19.4506 C.3      45        0    0.0000
    272 C         129.8773   17.2731  -20.9073 C.3      45        0    0.0000
    273 H         130.3154   18.7522  -19.3822 H        45        0    0.0000
    274 H         131.0469   17.1795  -19.0828 H        45        0    0.0000
    275 H         130.1676   16.2276  -21.0690 H        45        0    0.0000
    276 H         128.8050   17.3402  -21.1295 H        45        0    0.0000
    277 C         130.6606   18.1775  -21.9201 C.3      46        0    0.0000
    278 C         130.3856   17.7906  -23.3774 C.3      46        0    0.0000
    279 H         130.3802   19.2243  -21.7496 H        46        0    0.0000
    280 H         131.7339   18.1000  -21.7065 H        46        0    0.0000
    281 H         131.1701   17.1158  -23.7419 H        46        0    0.0000
    282 H         129.4391   17.2405  -23.4484 H        46        0    0.0000
    283 C         130.3157   19.0405  -24.3210 C.3      47        0    0.0000
    284 C         130.1062   18.6497  -25.7881 C.3      47        0    0.0000
    285 H         129.4994   19.6919  -23.9850 H        47        0    0.0000
    286 H         131.2430   19.6167  -24.2139 H        47        0    0.0000
    287 H         129.0957   18.2467  -25.9294 H        47        0    0.0000
    288 H         130.1838   19.5371  -26.4285 H        47        0    0.0000
    289 C         131.1479   17.5836  -26.2735 C.3      48        0    0.0000
    290 C         130.8303   17.0586  -27.6780 C.3      48        0    0.0000
    291 H         132.1482   18.0338  -26.2575 H        48        0    0.0000
    292 H         131.1646   16.7534  -25.5565 H        48        0    0.0000
    293 H         131.7365   16.6475  -28.1398 H        48        0    0.0000
    294 H         130.1068   16.2362  -27.6175 H        48        0    0.0000
    295 C         130.2490   18.1752  -28.6122 C.3      49        0    0.0000
    296 C         129.9970   17.6679  -30.0364 C.3      49        0    0.0000
    297 H         129.3151   18.5505  -28.1758 H        49        0    0.0000
    298 H         130.9492   19.0196  -28.6320 H        49        0    0.0000
    299 H         129.9246   16.5733  -30.0385 H        49        0    0.0000
    300 H         129.0367   18.0479  -30.4066 H        49        0    0.0000
    301 C         131.1290   18.1014  -31.0304 C.3      50        0    0.0000
    302 C         130.7971   17.7393  -32.4823 C.3      50        0    0.0000
    303 H         131.2849   19.1834  -30.9388 H        50        0    0.0000
    304 H         132.0679   17.6211  -30.7282 H        50        0    0.0000
    305 H         131.5789   18.1176  -33.1525 H        50        0    0.0000
    306 H         130.7788   16.6491  -32.6033 H        50        0    0.0000
    307 C         129.4151   18.3217  -32.9387 C.3      51        0    0.0000
    308 C         129.0947   17.9809  -34.3983 C.3      51        0    0.0000
    309 H         128.6308   17.9287  -32.2798 H        51        0    0.0000
    310 H         129.4268   19.4099  -32.8003 H        51        0    0.0000
    311 H         128.8658   16.9123  -34.4936 H        51        0    0.0000
    312 H         128.1994   18.5251  -34.7238 H        51        0    0.0000
    313 C         130.2785   18.3322  -35.3640 C.3      52        0    0.0000
    314 C         130.0842   17.7352  -36.7622 C.3      52        0    0.0000
    315 H         130.3689   19.4235  -35.4302 H        52        0    0.0000
    316 H         131.2141   17.9647  -34.9247 H        52        0    0.0000
    317 H         130.5528   16.7447  -36.8167 H        52        0    0.0000
    318 H         129.0157   17.5897  -36.9639 H        52        0    0.0000
    319 C         130.6915   18.6440  -37.8859 C.3      53        0    0.0000
    320 C         130.4626   18.0664  -39.2870 C.3      53        0    0.0000
    321 H         130.2439   19.6430  -37.8131 H        53        0    0.0000
    322 H         131.7658   18.7658  -37.7001 H        53        0    0.0000
    323 H         129.8602   18.7604  -39.8861 H        53        0    0.0000
    324 H         131.4214   17.9512  -39.8076 H        53        0    0.0000
    325 C         129.7399   16.6760  -39.2456 C.3      54        0    0.0000
    326 C         129.3770   16.1680  -40.6453 C.3      54        0    0.0000
    327 H         130.3925   15.9531  -38.7406 H        54        0    0.0000
    328 H         128.8351   16.7659  -38.6318 H        54        0    0.0000
    329 H         129.6930   15.1237  -40.7602 H        54        0    0.0000
    330 H         128.2885   16.1845  -40.7810 H        54        0    0.0000
    331 C         130.0405   17.0242  -41.7785 C.3      55        0    0.0000
    332 C         129.5471   16.6240  -43.1733 C.3      55        0    0.0000
    333 H         129.8253   18.0839  -41.5931 H        55        0    0.0000
    334 H         131.1297   16.9085  -41.7173 H        55        0    0.0000
    335 H         129.9815   17.2881  -43.9309 H        55        0    0.0000
    336 H         129.8840   15.6082  -43.4144 H        55        0    0.0000
    337 C         127.9847   16.6791  -43.2893 C.3      56        0    0.0000
    338 C         127.5196   17.5498  -44.4617 C.3      56        0    0.0000
    339 H         127.6025   15.6573  -43.4046 H        56        0    0.0000
    340 H         127.5737   17.0649  -42.3481 H        56        0    0.0000
    341 H         127.9019   18.5716  -44.3464 H        56        0    0.0000
    342 H         127.9306   17.1640  -45.4029 H        56        0    0.0000
    343 H         126.4333   17.5881  -44.5423 H        56        0    0.0000
    344 H         139.2798   35.8687  -40.4349 H         0        0    0.0000
@<TRIPOS>BOND
     1     1     2      1
     2     1     3      1
     3     1     4      1
     4     1   344      H
     5     2     5      1
     6     2     6      1
     7     2     7      1
     8     7     8      1
     9     7     9      1
    10     7    10      1
    11     8    11      1
    12     8    12      1
    13     8    13      1
    14    13    14      1
    15    13    15      1
    16    13    16      1
    17    14    17      1
    18    14    18      1
    19    14    19      1
    20    19    20      1
    21    19    21      1
    22    19    22      1
    23    20    23      1
    24    20    24      1
    25    20    25      1
    26    25    26      1
    27    25    27      1
    28    25    28      1
    29    26    29      1
    30    26    30      1
    31    26    31      1
    32    31    32      1
    33    31    33      1
    34    31    34      1
    35    32    35      1
    36    32    36      1
    37    32    37      1
    38    37    38      1
    39    37    39      1
    40    37    40      1
    41    38    41      1
    42    38    42      1
    43    38    43      1
    44    43    44      1
    45    43    45      1
    46    43    46      1
    47    44    47      1
    48    44    48      1
    49    44    49      1
    50    49    50      1
    51    49    51      1
    52    49    52      1
    53    50    53      1
    54    50    54      1
    55    50    55      1
    56    55    56      1
    57    55    57      1
    58    55    58      1
    59    56    59      1
    60    56    60      1
    61    56    61      1
    62    61    62      1
    63    61    63      1
    64    61    64      1
    65    62    65      1
    66    62    66      1
    67    62    67      1
    68    67    68      1
    69    67    69      1
    70    67    70      1
    71    68    71      1
    72    68    72      1
    73    68    73      1
    74    73    74      1
    75    73    75      1
    76    73    76      1
    77    74    77      1
    78    74    78      1
    79    74    79      1
    80    79    80      1
    81    79    81      1
    82    79    82      1
    83    80    83      1
    84    80    84      1
    85    80    85      1
    86    85    86      1
    87    85    87      1
    88    85    88      1
    89    86    89      1
    90    86    90      1
    91    86    91      1
    92    91    92      1
    93    91    93      1
    94    91    94      1
    95    92    95      1
    96    92    96      1
    97    92    97      1
    98    97    98      1
    99    97    99      1
   100    97   100      1
   101    98   101      1
   102    98   102      1
   103    98   103      1
   104   103   104      1
   105   103   105      1
   106   103   106      1
   107   104   107      1
   108   104   108      1
   109   104   109      1
   110   109   110      1
   111   109   111      1
   112   109   112      1
   113   110   113      1
   114   110   114      1
   115   110   115      1
   116   115   116      1
   117   115   117      1
   118   115   118      1
   119   116   119      1
   120   116   120      1
   121   116   121      1
   122   121   122      1
   123   121   123      1
   124   121   124      1
   125   122   125      1
   126   122   126      1
   127   122   127      1
   128   127   128      1
   129   127   129      1
   130   127   130      1
   131   128   131      1
   132   128   132      1
   133   128   133      1
   134   133   134      1
   135   133   135      1
   136   133   136      1
   137   134   137      1
   138   134   138      1
   139   134   139      1
   140   139   140      1
   141   139   141      1
   142   139   142      1
   143   140   143      1
   144   140   144      1
   145   140   145      1
   146   145   146      1
   147   145   147      1
   148   145   148      1
   149   146   149      1
   150   146   150      1
   151   146   151      1
   152   151   152      1
   153   151   153      1
   154   151   154      1
   155   152   155      1
   156   152   156      1
   157   152   157      1
   158   157   158      1
   159   157   159      1
   160   157   160      1
   161   158   161      1
   162   158   162      1
   163   158   163      1
   164   163   164      1
   165   163   165      1
   166   163   166      1
   167   164   167      1
   168   164   168      1
   169   164   169      1
   170   169   170      1
   171   169   171      1
   172   169   172      1
   173   170   173      1
   174   170   174      1
   175   170   175      1
   176   175   176      1
   177   175   177      1
   178   175   178      1
   179   176   179      1
   180   176   180      1
   181   176   181      1
   182   181   182      1
   183   181   183      1
   184   181   184      1
   185   182   185      1
   186   182   186      1
   187   182   187      1
   188   187   188      1
   189   187   189      1
   190   187   190      1
   191   188   191      1
   192   188   192      1
   193   188   193      1
   194   193   194      1
   195   193   195      1
   196   193   196      1
   197   194   197      1
   198   194   198      1
   199   194   199      1
   200   199   200      1
   201   199   201      1
   202   199   202      1
   203   200   203      1
   204   200   204      1
   205   200   205      1
   206   205   206      1
   207   205   207      1
   208   205   208      1
   209   206   209      1
   210   206   210      1
   211   206   211      1
   212   211   212      1
   213   211   213      1
   214   211   214      1
   215   212   215      1
   216   212   216      1
   217   212   217      1
   218   217   218      1
   219   217   219      1
   220   217   220      1
   221   218   221      1
   222   218   222      1
   223   218   223      1
   224   223   224      1
   225   223   225      1
   226   223   226      1
   227   224   227      1
   228   224   228      1
   229   224   229      1
   230   229   230      1
   231   229   231      1
   232   229   232      1
   233   230   233      1
   234   230   234      1
   235   230   235      1
   236   235   236      1
   237   235   237      1
   238   235   238      1
   239   236   239      1
   240   236   240      1
   241   236   241      1
   242   241   242      1
   243   241   243      1
   244   241   244      1
   245   242   245      1
   246   242   246      1
   247   242   247      1
   248   247   248      1
   249   247   249      1
   250   247   250      1
   251   248   251      1
   252   248   252      1
   253   248   253      1
   254   253   254      1
   255   253   255      1
   256   253   256      1
   257   254   257      1
   258   254   258      1
   259   254   259      1
   260   259   260      1
   261   259   261      1
   262   259   262      1
   263   260   263      1
   264   260   264      1
   265   260   265      1
   266   265   266      1
   267   265   267      1
   268   265   268      1
   269   266   269      1
   270   266   270      1
   271   266   271      1
   272   271   272      1
   273   271   273      1
   274   271   274      1
   275   272   275      1
   276   272   276      1
   277   272   277      1
   278   277   278      1
   279   277   279      1
   280   277   280      1
   281   278   281      1
   282   278   282      1
   283   278   283      1
   284   283   284      1
   285   283   285      1
   286   283   286      1
   287   284   287      1
   288   284   288      1
   289   284   289      1
   290   289   290      1
   291   289   291      1
   292   289   292      1
   293   290   293      1
   294   290   294      1
   295   290   295      1
   296   295   296      1
   297   295   297      1
   298   295   298      1
   299   296   299      1
   300   296   300      1
   301   296   301      1
   302   301   302      1
   303   301   303      1
   304   301   304      1
   305   302   305      1
   306   302   306      1
   307   302   307      1
   308   307   308      1
   309   307   309      1
   310   307   310      1
   311   308   311      1
   312   308   312      1
   313   308   313      1
   314   313   314      1
   315   313   315      1
   316   313   316      1
   317   314   317      1
   318   314   318      1
   319   314   319      1
   320   319   320      1
   321   319   321      1
   322   319   322      1
   323   320   323      1
   324   320   324      1
   325   320   325      1
   326   325   326      1
   327   325   327      1
   328   325   328      1
   329   326   329      1
   330   326   330      1
   331   326   331      1
   332   331   332      1
   333   331   333      1
   334   331   334      1
   335   332   335      1
   336   332   336      1
   337   332   337      1
   338   337   338      1
   339   337   339      1
   340   337   340      1
   341   338   341      1
   342   338   342      1
   343   338   343      H
