###
### Created by PolyChef-cpp17 on Thu Feb 27 19:40:28 2025
###

@<TRIPOS>MOLECULE
NO_INFO
296 295 1 0 0
SMALL
USER_CHARGES


@<TRIPOS>ATOM
      1 C          19.2798   70.5087  120.6551 C.3       0        0    0.0000
      2 C          18.4513   69.3575  120.0742 C.3       0        0    0.0000
      3 H          18.8875   71.4702  120.3015 H         0        0    0.0000
      4 H          20.3162   70.4421  120.3014 H         0        0    0.0000
      5 H          18.4067   68.5275  120.7902 H         0        0    0.0000
      6 H          17.4177   69.6850  119.9068 H         0        0    0.0000
      7 C          19.0385   68.8266  118.7211 C.3       1        0    0.0000
      8 C          19.6333   69.9504  117.8654 C.3       1        0    0.0000
      9 H          19.8061   68.0739  118.9399 H         1        0    0.0000
     10 H          18.2426   68.3132  118.1675 H         1        0    0.0000
     11 H          18.9409   70.8005  117.8268 H         1        0    0.0000
     12 H          20.5604   70.3197  118.3211 H         1        0    0.0000
     13 C          19.9414   69.4827  116.4012 C.3       2        0    0.0000
     14 C          19.8866   70.6401  115.3981 C.3       2        0    0.0000
     15 H          20.9331   69.0140  116.3810 H         2        0    0.0000
     16 H          19.2200   68.7058  116.1190 H         2        0    0.0000
     17 H          18.9669   71.2204  115.5431 H         2        0    0.0000
     18 H          20.7236   71.3279  115.5712 H         2        0    0.0000
     19 C          19.9408   70.1420  113.9127 C.3       3        0    0.0000
     20 C          19.8216   71.2941  112.9089 C.3       3        0    0.0000
     21 H          20.8825   69.6017  113.7551 H         3        0    0.0000
     22 H          19.1319   69.4184  113.7526 H         3        0    0.0000
     23 H          18.8851   71.8411  113.0737 H         3        0    0.0000
     24 H          20.6369   72.0121  113.0618 H         3        0    0.0000
     25 C          19.8604   70.7944  111.4236 C.3       4        0    0.0000
     26 C          19.8249   71.9523  110.4201 C.3       4        0    0.0000
     27 H          20.7677   70.1959  111.2754 H         4        0    0.0000
     28 H          19.0092   70.1234  111.2539 H         4        0    0.0000
     29 H          18.9109   72.5429  110.5593 H         4        0    0.0000
     30 H          20.6685   72.6306  110.5984 H         4        0    0.0000
     31 C          19.8829   71.4535  108.9351 C.3       5        0    0.0000
     32 C          18.7983   72.0964  108.0636 C.3       5        0    0.0000
     33 H          20.8759   71.6767  108.5256 H         5        0    0.0000
     34 H          19.7759   70.3617  108.9244 H         5        0    0.0000
     35 H          17.8434   72.1138  108.6033 H         5        0    0.0000
     36 H          19.0580   73.1405  107.8491 H         5        0    0.0000
     37 C          18.5983   71.3365  106.7071 C.3       6        0    0.0000
     38 C          18.8965   72.2249  105.4943 C.3       6        0    0.0000
     39 H          19.2503   70.4543  106.6965 H         6        0    0.0000
     40 H          17.5667   70.9665  106.6578 H         6        0    0.0000
     41 H          17.9849   72.7457  105.1763 H         6        0    0.0000
     42 H          19.6239   73.0001  105.7655 H         6        0    0.0000
     43 C          19.4594   71.4058  104.2819 C.3       7        0    0.0000
     44 C          18.8205   71.8225  102.9526 C.3       7        0    0.0000
     45 H          20.5468   71.5439  104.2363 H         7        0    0.0000
     46 H          19.2849   70.3383  104.4649 H         7        0    0.0000
     47 H          17.7302   71.8782  103.0604 H         7        0    0.0000
     48 H          19.1608   72.8265  102.6701 H         7        0    0.0000
     49 C          19.1632   70.8273  101.7909 C.3       8        0    0.0000
     50 C          18.9727   71.4606  100.4083 C.3       8        0    0.0000
     51 H          20.1998   70.4884  101.9099 H         8        0    0.0000
     52 H          18.5280   69.9381  101.8881 H         8        0    0.0000
     53 H          17.9166   71.7131  100.2525 H         8        0    0.0000
     54 H          19.5341   72.4010  100.3448 H         8        0    0.0000
     55 C          19.4418   70.5129   99.2510 C.3       9        0    0.0000
     56 C          19.1553   71.1022   97.8655 C.3       9        0    0.0000
     57 H          20.5163   70.3221   99.3638 H         9        0    0.0000
     58 H          18.9369   69.5451   99.3599 H         9        0    0.0000
     59 H          18.0836   71.3116   97.7601 H         9        0    0.0000
     60 H          19.6764   72.0606   97.7492 H         9        0    0.0000
     61 C          19.5988   70.1422   96.7083 C.3      10        0    0.0000
     62 C          19.3229   70.7365   95.3227 C.3      10        0    0.0000
     63 H          20.6686   69.9260   96.8186 H        10        0    0.0000
     64 H          19.0711   69.1868   96.8196 H        10        0    0.0000
     65 H          18.2523   70.9479   95.2104 H        10        0    0.0000
     66 H          19.8463   71.6944   95.2133 H        10        0    0.0000
     67 C          19.7731   69.7796   94.1655 C.3      11        0    0.0000
     68 C          19.4890   70.3701   92.7799 C.3      11        0    0.0000
     69 H          20.8451   69.5735   94.2740 H        11        0    0.0000
     70 H          19.2546   68.8195   94.2787 H        11        0    0.0000
     71 H          18.4174   70.5785   92.6723 H        11        0    0.0000
     72 H          20.0095   71.3291   92.6658 H        11        0    0.0000
     73 C          19.9361   69.4118   91.6227 C.3      12        0    0.0000
     74 C          19.6596   70.0058   90.2371 C.3      12        0    0.0000
     75 H          21.0065   69.1986   91.7338 H        12        0    0.0000
     76 H          19.4112   68.4548   91.7333 H        12        0    0.0000
     77 H          18.5888   70.2163   90.1250 H        12        0    0.0000
     78 H          20.1822   70.9641   90.1276 H        12        0    0.0000
     79 C          20.1103   69.0492   89.0799 C.3      13        0    0.0000
     80 C          19.8287   69.6407   87.6943 C.3      13        0    0.0000
     81 H          21.1821   68.8420   89.1896 H        13        0    0.0000
     82 H          19.5908   68.0894   89.1919 H        13        0    0.0000
     83 H          18.7575   69.8515   87.5860 H        13        0    0.0000
     84 H          20.3512   70.5986   87.5810 H        13        0    0.0000
     85 C          20.2745   68.6818   86.5371 C.3      14        0    0.0000
     86 C          19.9880   69.2711   85.1516 C.3      14        0    0.0000
     87 H          21.3465   68.4742   86.6432 H        14        0    0.0000
     88 H          19.7548   67.7226   86.6527 H        14        0    0.0000
     89 H          18.9484   69.6174   85.0978 H        14        0    0.0000
     90 H          20.6220   70.1494   84.9779 H        14        0    0.0000
     91 C          20.2352   68.2342   84.0022 C.3      15        0    0.0000
     92 C          19.9589   68.8267   82.6160 C.3      15        0    0.0000
     93 H          21.2726   67.8820   84.0608 H        15        0    0.0000
     94 H          19.5955   67.3592   84.1717 H        15        0    0.0000
     95 H          18.9465   68.5603   82.2880 H        15        0    0.0000
     96 H          19.9976   69.9221   82.6606 H        15        0    0.0000
     97 C          20.9857   68.3282   81.5414 C.3      16        0    0.0000
     98 C          20.8313   69.0633   80.2055 C.3      16        0    0.0000
     99 H          22.0015   68.4669   81.9319 H        16        0    0.0000
    100 H          20.8490   67.2496   81.3953 H        16        0    0.0000
    101 H          20.9092   68.3523   79.3737 H        16        0    0.0000
    102 H          19.8350   69.5178   80.1392 H        16        0    0.0000
    103 C          21.9113   70.1835   80.0154 C.3      17        0    0.0000
    104 C          22.1869   70.4799   78.5372 C.3      17        0    0.0000
    105 H          21.5702   71.0936   80.5243 H        17        0    0.0000
    106 H          22.8366   69.8711   80.5153 H        17        0    0.0000
    107 H          22.0722   69.5653   77.9424 H        17        0    0.0000
    108 H          21.4520   71.1989   78.1543 H        17        0    0.0000
    109 C          23.6261   71.0564   78.3051 C.3      18        0    0.0000
    110 C          24.1282   70.8081   76.8784 C.3      18        0    0.0000
    111 H          23.6145   72.1326   78.5178 H        18        0    0.0000
    112 H          24.3112   70.5994   79.0299 H        18        0    0.0000
    113 H          23.3142   70.9668   76.1602 H        18        0    0.0000
    114 H          24.9159   71.5287   76.6261 H        18        0    0.0000
    115 C          24.6916   69.3572   76.6910 C.3      19        0    0.0000
    116 C          24.8162   68.9689   75.2136 C.3      19        0    0.0000
    117 H          25.6710   69.2922   77.1810 H        19        0    0.0000
    118 H          24.0317   68.6517   77.2110 H        19        0    0.0000
    119 H          23.9679   69.3712   74.6461 H        19        0    0.0000
    120 H          25.7223   69.4129   74.7831 H        19        0    0.0000
    121 C          24.8691   67.4154   75.0101 C.3      20        0    0.0000
    122 C          24.8787   67.0237   73.5284 C.3      20        0    0.0000
    123 H          25.7644   67.0238   75.5085 H        20        0    0.0000
    124 H          24.0053   66.9633   75.5131 H        20        0    0.0000
    125 H          23.9952   67.4352   73.0248 H        20        0    0.0000
    126 H          25.7552   67.4565   73.0305 H        20        0    0.0000
    127 C          24.8982   65.4695   73.3249 C.3      21        0    0.0000
    128 C          24.9167   65.0779   71.8432 C.3      21        0    0.0000
    129 H          25.7782   65.0572   73.8339 H        21        0    0.0000
    130 H          24.0182   65.0373   73.8172 H        21        0    0.0000
    131 H          24.0040   65.4331   71.3488 H        21        0    0.0000
    132 H          25.7593   65.5641   71.3361 H        21        0    0.0000
    133 C          25.0310   63.5277   71.6398 C.3      22        0    0.0000
    134 C          25.6522   63.1637   70.2868 C.3      22        0    0.0000
    135 H          25.6327   63.1075   72.4552 H        22        0    0.0000
    136 H          24.0309   63.0851   71.7258 H        22        0    0.0000
    137 H          24.9971   63.4938   69.4711 H        22        0    0.0000
    138 H          26.6062   63.6896   70.1572 H        22        0    0.0000
    139 C          25.9010   61.6226   70.1427 C.3      23        0    0.0000
    140 C          27.2875   61.3092   69.5695 C.3      23        0    0.0000
    141 H          25.7859   61.1523   71.1271 H        23        0    0.0000
    142 H          25.1223   61.1975   69.4974 H        23        0    0.0000
    143 H          27.2330   60.4339   68.9105 H        23        0    0.0000
    144 H          27.6376   62.1464   68.9529 H        23        0    0.0000
    145 C          28.3456   61.0314   70.6922 C.3      24        0    0.0000
    146 C          29.7577   61.4603   70.2786 C.3      24        0    0.0000
    147 H          28.0427   61.5628   71.6029 H        24        0    0.0000
    148 H          28.3330   59.9612   70.9330 H        24        0    0.0000
    149 H          30.3009   60.6069   69.8541 H        24        0    0.0000
    150 H          29.7039   62.2225   69.4914 H        24        0    0.0000
    151 C          30.5808   62.0348   71.4827 C.3      25        0    0.0000
    152 C          31.3554   60.9436   72.2300 C.3      25        0    0.0000
    153 H          31.2739   62.7969   71.1056 H        25        0    0.0000
    154 H          29.8939   62.5455   72.1689 H        25        0    0.0000
    155 H          31.4780   60.0626   71.5879 H        25        0    0.0000
    156 H          32.3643   61.2986   72.4740 H        25        0    0.0000
    157 C          30.6390   60.5077   73.5545 C.3      26        0    0.0000
    158 C          30.6831   58.9904   73.7665 C.3      26        0    0.0000
    159 H          31.1161   61.0196   74.3995 H        26        0    0.0000
    160 H          29.5983   60.8532   73.5238 H        26        0    0.0000
    161 H          30.6067   58.4735   72.8019 H        26        0    0.0000
    162 H          31.6461   58.6996   74.2043 H        26        0    0.0000
    163 C          29.5302   58.4875   74.7020 C.3      27        0    0.0000
    164 C          29.5370   56.9635   74.8644 C.3      27        0    0.0000
    165 H          29.6335   58.9707   75.6815 H        27        0    0.0000
    166 H          28.5694   58.8174   74.2878 H        27        0    0.0000
    167 H          29.4023   56.4806   73.8886 H        27        0    0.0000
    168 H          30.5089   56.6305   75.2492 H        27        0    0.0000
    169 C          28.4115   56.4644   75.8348 C.3      28        0    0.0000
    170 C          28.6445   55.0236   76.3024 C.3      28        0    0.0000
    171 H          28.3659   57.1379   76.6996 H        28        0    0.0000
    172 H          27.4438   56.5422   75.3237 H        28        0    0.0000
    173 H          28.0615   54.3288   75.6852 H        28        0    0.0000
    174 H          29.6993   54.7517   76.1721 H        28        0    0.0000
    175 C          28.2512   54.8159   77.8057 C.3      29        0    0.0000
    176 C          28.8371   53.5241   78.3862 C.3      29        0    0.0000
    177 H          28.5990   55.6803   78.3848 H        29        0    0.0000
    178 H          27.1572   54.8022   77.8863 H        29        0    0.0000
    179 H          28.0963   52.7169   78.3308 H        29        0    0.0000
    180 H          29.6999   53.2014   77.7904 H        29        0    0.0000
    181 C          29.2884   53.6943   79.8778 C.3      30        0    0.0000
    182 C          29.7868   52.3794   80.4875 C.3      30        0    0.0000
    183 H          30.0788   54.4536   79.9237 H        30        0    0.0000
    184 H          28.4440   54.0828   80.4605 H        30        0    0.0000
    185 H          29.1300   51.5532   80.1882 H        30        0    0.0000
    186 H          30.7867   52.1419   80.1035 H        30        0    0.0000
    187 C          29.8469   52.4355   82.0530 C.3      31        0    0.0000
    188 C          30.2491   51.0902   82.6674 C.3      31        0    0.0000
    189 H          30.5600   53.2137   82.3518 H        31        0    0.0000
    190 H          28.8655   52.7445   82.4336 H        31        0    0.0000
    191 H          29.5603   50.3038   82.3347 H        31        0    0.0000
    192 H          31.2486   50.8015   82.3194 H        31        0    0.0000
    193 C          30.2516   51.1299   84.2345 C.3      32        0    0.0000
    194 C          30.0402   49.7427   84.8510 C.3      32        0    0.0000
    195 H          31.2048   51.5520   84.5760 H        32        0    0.0000
    196 H          29.4645   51.8155   84.5722 H        32        0    0.0000
    197 H          29.1575   49.2649   84.4083 H        32        0    0.0000
    198 H          30.8963   49.0955   84.6233 H        32        0    0.0000
    199 C          29.8541   49.8058   86.4063 C.3      33        0    0.0000
    200 C          30.8328   48.8874   87.1462 C.3      33        0    0.0000
    201 H          29.9888   50.8432   86.7367 H        33        0    0.0000
    202 H          28.8209   49.5291   86.6503 H        33        0    0.0000
    203 H          30.3796   47.9001   87.2995 H        33        0    0.0000
    204 H          31.7330   48.7299   86.5391 H        33        0    0.0000
    205 C          31.2576   49.4700   88.5381 C.3      34        0    0.0000
    206 C          30.4651   48.8494   89.6939 C.3      34        0    0.0000
    207 H          32.3312   49.2955   88.6818 H        34        0    0.0000
    208 H          31.1142   50.5575   88.5249 H        34        0    0.0000
    209 H          29.5352   48.4058   89.3169 H        34        0    0.0000
    210 H          31.0407   48.0343   90.1498 H        34        0    0.0000
    211 C          30.1108   49.8995   90.8026 C.3      35        0    0.0000
    212 C          30.1222   49.2871   92.2075 C.3      35        0    0.0000
    213 H          30.8281   50.7277   90.7474 H        35        0    0.0000
    214 H          29.1226   50.3236   90.5851 H        35        0    0.0000
    215 H          29.2660   48.6124   92.3308 H        35        0    0.0000
    216 H          31.0248   48.6790   92.3455 H        35        0    0.0000
    217 C          30.0715   50.3784   93.3318 C.3      36        0    0.0000
    218 C          30.0909   49.7663   94.7368 C.3      36        0    0.0000
    219 H          30.9246   51.0565   93.2051 H        36        0    0.0000
    220 H          29.1659   50.9829   93.1972 H        36        0    0.0000
    221 H          29.2347   49.0926   94.8654 H        36        0    0.0000
    222 H          30.9937   49.1574   94.8694 H        36        0    0.0000
    223 C          30.0481   50.8580   95.8610 C.3      37        0    0.0000
    224 C          30.0641   50.2458   97.2660 C.3      37        0    0.0000
    225 H          30.9056   51.5303   95.7339 H        37        0    0.0000
    226 H          29.1465   51.4685   95.7270 H        37        0    0.0000
    227 H          29.2062   49.5740   97.3934 H        37        0    0.0000
    228 H          30.9653   49.6346   97.3998 H        37        0    0.0000
    229 C          30.0224   51.3374   98.3903 C.3      38        0    0.0000
    230 C          30.0432   50.7254   99.7953 C.3      38        0    0.0000
    231 H          30.8785   52.0112   98.2608 H        38        0    0.0000
    232 H          29.1195   51.9464   98.2585 H        38        0    0.0000
    233 H          29.1880   50.0504   99.9242 H        38        0    0.0000
    234 H          30.9469   50.1177   99.9276 H        38        0    0.0000
    235 C          29.9992   51.8170  100.9195 C.3      39        0    0.0000
    236 C          30.0268   51.2052  102.3245 C.3      39        0    0.0000
    237 H          30.8515   52.4949  100.7876 H        39        0    0.0000
    238 H          29.0929   52.4215  100.7902 H        39        0    0.0000
    239 H          29.1724   50.5301  102.4577 H        39        0    0.0000
    240 H          30.9313   50.5977  102.4525 H        39        0    0.0000
    241 C          29.9881   52.2970  103.4488 C.3      40        0    0.0000
    242 C          30.0115   51.6851  104.8538 C.3      40        0    0.0000
    243 H          30.8442   52.9703  103.3174 H        40        0    0.0000
    244 H          29.0852   52.9065  103.3189 H        40        0    0.0000
    245 H          29.1542   51.0134  104.9858 H        40        0    0.0000
    246 H          30.9133   51.0739  104.9829 H        40        0    0.0000
    247 C          29.9758   52.7770  105.9780 C.3      41        0    0.0000
    248 C          29.9936   52.1649  107.3830 C.3      41        0    0.0000
    249 H          30.8353   53.4463  105.8483 H        41        0    0.0000
    250 H          29.0760   53.3907  105.8465 H        41        0    0.0000
    251 H          29.1303   51.5009  107.5151 H        41        0    0.0000
    252 H          30.8899   51.5456  107.5122 H        41        0    0.0000
    253 C          29.9677   53.2570  108.5073 C.3      42        0    0.0000
    254 C          29.9847   52.6449  109.9123 C.3      42        0    0.0000
    255 H          30.8315   53.9205  108.3756 H        42        0    0.0000
    256 H          29.0718   53.8767  108.3777 H        42        0    0.0000
    257 H          29.1338   51.9635  110.0360 H        42        0    0.0000
    258 H          30.8921   52.0440  110.0499 H        42        0    0.0000
    259 C          29.9258   53.7359  111.0364 C.3      43        0    0.0000
    260 C          29.9465   53.1240  112.4414 C.3      43        0    0.0000
    261 H          30.7751   54.4189  110.9110 H        43        0    0.0000
    262 H          29.0170   54.3351  110.9004 H        43        0    0.0000
    263 H          30.0651   53.9134  113.1939 H        43        0    0.0000
    264 H          28.9895   52.6303  112.6509 H        43        0    0.0000
    265 C          31.1027   52.0801  112.6178 C.3      44        0    0.0000
    266 C          31.0764   51.4117  113.9968 C.3      44        0    0.0000
    267 H          31.0171   51.3211  111.8302 H        44        0    0.0000
    268 H          32.0633   52.5870  112.4637 H        44        0    0.0000
    269 H          30.2741   50.6646  114.0375 H        44        0    0.0000
    270 H          32.0165   50.8741  114.1722 H        44        0    0.0000
    271 C          30.8625   52.4466  115.1546 C.3      45        0    0.0000
    272 C          30.3994   51.7775  116.4535 C.3      45        0    0.0000
    273 H          31.8021   52.9869  115.3241 H        45        0    0.0000
    274 H          30.1247   53.1914  114.8313 H        45        0    0.0000
    275 H          29.4403   51.2696  116.2937 H        45        0    0.0000
    276 H          31.1180   51.0058  116.7561 H        45        0    0.0000
    277 C          30.2377   52.8052  117.6262 C.3      46        0    0.0000
    278 C          29.9776   52.1163  118.9704 C.3      46        0    0.0000
    279 H          31.1456   53.4180  117.6870 H        46        0    0.0000
    280 H          29.4125   53.4874  117.3873 H        46        0    0.0000
    281 H          29.1990   52.6548  119.5246 H        46        0    0.0000
    282 H          29.6006   51.0994  118.8052 H        46        0    0.0000
    283 C          31.2676   52.0389  119.8578 C.3      47        0    0.0000
    284 C          30.9684   51.5388  121.2753 C.3      47        0    0.0000
    285 H          31.9930   51.3758  119.3702 H        47        0    0.0000
    286 H          31.7284   53.0336  119.8993 H        47        0    0.0000
    287 H          31.7063   50.7828  121.5710 H        47        0    0.0000
    288 H          31.0584   52.3643  121.9922 H        47        0    0.0000
    289 C          29.5336   50.9188  121.3960 C.3      48        0    0.0000
    290 C          29.1866   50.5341  122.8384 C.3      48        0    0.0000
    291 H          28.8027   51.6418  121.0133 H        48        0    0.0000
    292 H          29.4739   50.0366  120.7466 H        48        0    0.0000
    293 H          29.9176   49.8110  123.2211 H        48        0    0.0000
    294 H          29.2464   51.4162  123.4878 H        48        0    0.0000
    295 H          28.1890   50.1030  122.9224 H        48        0    0.0000
    296 H          19.2798   70.5087  121.7450 H         0        0    0.0000
@<TRIPOS>BOND
     1     1     2      1
     2     1     3      1
     3     1     4      1
     4     1   296      H
     5     2     5      1
     6     2     6      1
     7     2     7      1
     8     7     8      1
     9     7     9      1
    10     7    10      1
    11     8    11      1
    12     8    12      1
    13     8    13      1
    14    13    14      1
    15    13    15      1
    16    13    16      1
    17    14    17      1
    18    14    18      1
    19    14    19      1
    20    19    20      1
    21    19    21      1
    22    19    22      1
    23    20    23      1
    24    20    24      1
    25    20    25      1
    26    25    26      1
    27    25    27      1
    28    25    28      1
    29    26    29      1
    30    26    30      1
    31    26    31      1
    32    31    32      1
    33    31    33      1
    34    31    34      1
    35    32    35      1
    36    32    36      1
    37    32    37      1
    38    37    38      1
    39    37    39      1
    40    37    40      1
    41    38    41      1
    42    38    42      1
    43    38    43      1
    44    43    44      1
    45    43    45      1
    46    43    46      1
    47    44    47      1
    48    44    48      1
    49    44    49      1
    50    49    50      1
    51    49    51      1
    52    49    52      1
    53    50    53      1
    54    50    54      1
    55    50    55      1
    56    55    56      1
    57    55    57      1
    58    55    58      1
    59    56    59      1
    60    56    60      1
    61    56    61      1
    62    61    62      1
    63    61    63      1
    64    61    64      1
    65    62    65      1
    66    62    66      1
    67    62    67      1
    68    67    68      1
    69    67    69      1
    70    67    70      1
    71    68    71      1
    72    68    72      1
    73    68    73      1
    74    73    74      1
    75    73    75      1
    76    73    76      1
    77    74    77      1
    78    74    78      1
    79    74    79      1
    80    79    80      1
    81    79    81      1
    82    79    82      1
    83    80    83      1
    84    80    84      1
    85    80    85      1
    86    85    86      1
    87    85    87      1
    88    85    88      1
    89    86    89      1
    90    86    90      1
    91    86    91      1
    92    91    92      1
    93    91    93      1
    94    91    94      1
    95    92    95      1
    96    92    96      1
    97    92    97      1
    98    97    98      1
    99    97    99      1
   100    97   100      1
   101    98   101      1
   102    98   102      1
   103    98   103      1
   104   103   104      1
   105   103   105      1
   106   103   106      1
   107   104   107      1
   108   104   108      1
   109   104   109      1
   110   109   110      1
   111   109   111      1
   112   109   112      1
   113   110   113      1
   114   110   114      1
   115   110   115      1
   116   115   116      1
   117   115   117      1
   118   115   118      1
   119   116   119      1
   120   116   120      1
   121   116   121      1
   122   121   122      1
   123   121   123      1
   124   121   124      1
   125   122   125      1
   126   122   126      1
   127   122   127      1
   128   127   128      1
   129   127   129      1
   130   127   130      1
   131   128   131      1
   132   128   132      1
   133   128   133      1
   134   133   134      1
   135   133   135      1
   136   133   136      1
   137   134   137      1
   138   134   138      1
   139   134   139      1
   140   139   140      1
   141   139   141      1
   142   139   142      1
   143   140   143      1
   144   140   144      1
   145   140   145      1
   146   145   146      1
   147   145   147      1
   148   145   148      1
   149   146   149      1
   150   146   150      1
   151   146   151      1
   152   151   152      1
   153   151   153      1
   154   151   154      1
   155   152   155      1
   156   152   156      1
   157   152   157      1
   158   157   158      1
   159   157   159      1
   160   157   160      1
   161   158   161      1
   162   158   162      1
   163   158   163      1
   164   163   164      1
   165   163   165      1
   166   163   166      1
   167   164   167      1
   168   164   168      1
   169   164   169      1
   170   169   170      1
   171   169   171      1
   172   169   172      1
   173   170   173      1
   174   170   174      1
   175   170   175      1
   176   175   176      1
   177   175   177      1
   178   175   178      1
   179   176   179      1
   180   176   180      1
   181   176   181      1
   182   181   182      1
   183   181   183      1
   184   181   184      1
   185   182   185      1
   186   182   186      1
   187   182   187      1
   188   187   188      1
   189   187   189      1
   190   187   190      1
   191   188   191      1
   192   188   192      1
   193   188   193      1
   194   193   194      1
   195   193   195      1
   196   193   196      1
   197   194   197      1
   198   194   198      1
   199   194   199      1
   200   199   200      1
   201   199   201      1
   202   199   202      1
   203   200   203      1
   204   200   204      1
   205   200   205      1
   206   205   206      1
   207   205   207      1
   208   205   208      1
   209   206   209      1
   210   206   210      1
   211   206   211      1
   212   211   212      1
   213   211   213      1
   214   211   214      1
   215   212   215      1
   216   212   216      1
   217   212   217      1
   218   217   218      1
   219   217   219      1
   220   217   220      1
   221   218   221      1
   222   218   222      1
   223   218   223      1
   224   223   224      1
   225   223   225      1
   226   223   226      1
   227   224   227      1
   228   224   228      1
   229   224   229      1
   230   229   230      1
   231   229   231      1
   232   229   232      1
   233   230   233      1
   234   230   234      1
   235   230   235      1
   236   235   236      1
   237   235   237      1
   238   235   238      1
   239   236   239      1
   240   236   240      1
   241   236   241      1
   242   241   242      1
   243   241   243      1
   244   241   244      1
   245   242   245      1
   246   242   246      1
   247   242   247      1
   248   247   248      1
   249   247   249      1
   250   247   250      1
   251   248   251      1
   252   248   252      1
   253   248   253      1
   254   253   254      1
   255   253   255      1
   256   253   256      1
   257   254   257      1
   258   254   258      1
   259   254   259      1
   260   259   260      1
   261   259   261      1
   262   259   262      1
   263   260   263      1
   264   260   264      1
   265   260   265      1
   266   265   266      1
   267   265   267      1
   268   265   268      1
   269   266   269      1
   270   266   270      1
   271   266   271      1
   272   271   272      1
   273   271   273      1
   274   271   274      1
   275   272   275      1
   276   272   276      1
   277   272   277      1
   278   277   278      1
   279   277   279      1
   280   277   280      1
   281   278   281      1
   282   278   282      1
   283   278   283      1
   284   283   284      1
   285   283   285      1
   286   283   286      1
   287   284   287      1
   288   284   288      1
   289   284   289      1
   290   289   290      1
   291   289   291      1
   292   289   292      1
   293   290   293      1
   294   290   294      1
   295   290   295      H
