###
### Created by PolyChef-cpp17 on Thu Feb 27 19:40:30 2025
###

@<TRIPOS>MOLECULE
NO_INFO
140 139 1 0 0
SMALL
USER_CHARGES


@<TRIPOS>ATOM
      1 C          -0.7202  105.1487  120.6551 C.3       0        0    0.0000
      2 C          -1.5487  103.9975  120.0742 C.3       0        0    0.0000
      3 H          -1.1125  106.1102  120.3015 H         0        0    0.0000
      4 H           0.3161  105.0821  120.3014 H         0        0    0.0000
      5 H          -1.5934  103.1676  120.7903 H         0        0    0.0000
      6 H          -2.5822  104.3250  119.9066 H         0        0    0.0000
      7 C          -0.9613  103.4664  118.7213 C.3       1        0    0.0000
      8 C          -0.3635  104.5897  117.8669 C.3       1        0    0.0000
      9 H          -0.1955  102.7121  118.9402 H         1        0    0.0000
     10 H          -1.7577  102.9550  118.1665 H         1        0    0.0000
     11 H          -1.0541  105.4412  117.8284 H         1        0    0.0000
     12 H           0.5640  104.9567  118.3236 H         1        0    0.0000
     13 C          -0.0553  104.1225  116.4026 C.3       2        0    0.0000
     14 C          -0.1110  105.2801  115.3997 C.3       2        0    0.0000
     15 H           0.9367  103.6545  116.3821 H         2        0    0.0000
     16 H          -0.7762  103.3452  116.1203 H         2        0    0.0000
     17 H          -1.0315  105.8591  115.5443 H         2        0    0.0000
     18 H           0.7250  105.9689  115.5734 H         2        0    0.0000
     19 C          -0.0553  104.7824  113.9142 C.3       3        0    0.0000
     20 C          -0.2005  105.9317  112.9107 C.3       3        0    0.0000
     21 H           0.8952  104.2592  113.7520 H         3        0    0.0000
     22 H          -0.8518  104.0442  113.7585 H         3        0    0.0000
     23 H          -1.1448  106.4632  113.0815 H         3        0    0.0000
     24 H           0.6038  106.6632  113.0576 H         3        0    0.0000
     25 C          -0.1636  105.4318  111.4254 C.3       4        0    0.0000
     26 C          -0.0755  106.5894  110.4248 C.3       4        0    0.0000
     27 H           0.6944  104.7598  111.2996 H         4        0    0.0000
     28 H          -1.0629  104.8342  111.2310 H         4        0    0.0000
     29 H          -0.9498  107.2438  110.5288 H         4        0    0.0000
     30 H           0.8065  107.2056  110.6393 H         4        0    0.0000
     31 C           0.0069  106.0880  108.9418 C.3       5        0    0.0000
     32 C          -1.0049  106.7944  108.0328 C.3       5        0    0.0000
     33 H           1.0257  106.2517  108.5693 H         5        0    0.0000
     34 H          -0.1644  105.0046  108.9249 H         5        0    0.0000
     35 H          -1.9713  106.8842  108.5441 H         5        0    0.0000
     36 H          -0.6671  107.8154  107.8160 H         5        0    0.0000
     37 C          -1.2185  106.0345  106.6784 C.3       6        0    0.0000
     38 C          -0.7993  106.8759  105.4679 C.3       6        0    0.0000
     39 H          -0.6451  105.0995  106.7033 H         6        0    0.0000
     40 H          -2.2755  105.7536  106.5934 H         6        0    0.0000
     41 H          -1.6385  107.4987  105.1340 H         6        0    0.0000
     42 H           0.0098  107.5617  105.7484 H         6        0    0.0000
     43 C          -0.3179  105.9907  104.2671 C.3       7        0    0.0000
     44 C          -0.8381  106.5057  102.9205 C.3       7        0    0.0000
     45 H           0.7789  105.9673  104.2625 H         7        0    0.0000
     46 H          -0.6543  104.9595  104.4308 H         7        0    0.0000
     47 H          -1.9128  106.7156  102.9879 H         7        0    0.0000
     48 H          -0.3476  107.4532  102.6652 H         7        0    0.0000
     49 C          -0.5950  105.4818  101.7587 C.3       8        0    0.0000
     50 C          -0.7375  106.1275  100.3761 C.3       8        0    0.0000
     51 H           0.4076  105.0509  101.8711 H         8        0    0.0000
     52 H          -1.3071  104.6537  101.8624 H         8        0    0.0000
     53 H          -1.7621  106.4938  100.2358 H         8        0    0.0000
     54 H          -0.0775  107.0004  100.2987 H         8        0    0.0000
     55 C          -0.3943  105.1301   99.2163 C.3       9        0    0.0000
     56 C          -0.5934  105.7579   97.8324 C.3       9        0    0.0000
     57 H           0.6444  104.7969   99.3323 H         9        0    0.0000
     58 H          -1.0246  104.2381   99.3190 H         9        0    0.0000
     59 H          -1.6290  106.1024   97.7211 H         9        0    0.0000
     60 H           0.0462  106.6427   97.7252 H         9        0    0.0000
     61 C          -0.2671  104.7550   96.6726 C.3      10        0    0.0000
     62 C          -0.4740  105.3802   95.2886 C.3      10        0    0.0000
     63 H           0.7704  104.4151   96.7805 H        10        0    0.0000
     64 H          -0.9024  103.8675   96.7833 H        10        0    0.0000
     65 H          -1.5112  105.7213   95.1812 H        10        0    0.0000
     66 H           0.1623  106.2669   95.1775 H        10        0    0.0000
     67 C          -0.1495  104.3767   94.1288 C.3      11        0    0.0000
     68 C          -0.3512  105.0036   92.7449 C.3      11        0    0.0000
     69 H           0.8864  104.0325   94.2386 H        11        0    0.0000
     70 H          -0.7887  103.4917   94.2377 H        11        0    0.0000
     71 H          -1.3875  105.3462   92.6345 H        11        0    0.0000
     72 H           0.2867  105.8895   92.6367 H        11        0    0.0000
     73 C          -0.0243  104.0009   91.5851 C.3      12        0    0.0000
     74 C          -0.2314  104.6260   90.2011 C.3      12        0    0.0000
     75 H           1.0134  103.6615   91.6930 H        12        0    0.0000
     76 H          -0.6592  103.1131   91.6957 H        12        0    0.0000
     77 H          -1.2700  104.9622   90.0918 H        12        0    0.0000
     78 H           0.4009  105.5159   90.0919 H        12        0    0.0000
     79 C           0.1004  103.6249   89.0413 C.3      13        0    0.0000
     80 C          -0.1103  104.2489   87.6574 C.3      13        0    0.0000
     81 H           1.1398  103.2908   89.1491 H        13        0    0.0000
     82 H          -0.5300  102.7339   89.1521 H        13        0    0.0000
     83 H          -1.1502  104.5809   87.5488 H        13        0    0.0000
     84 H           0.5184  105.1412   87.5474 H        13        0    0.0000
     85 C           0.2246  103.2488   86.4976 C.3      14        0    0.0000
     86 C           0.0174  103.8739   85.1136 C.3      14        0    0.0000
     87 H           1.2637  102.9147   86.6077 H        14        0    0.0000
     88 H          -0.4059  102.3576   86.6060 H        14        0    0.0000
     89 H          -1.0201  104.2137   85.0058 H        14        0    0.0000
     90 H           0.6527  104.7614   85.0028 H        14        0    0.0000
     91 C           0.3437  102.8710   83.9538 C.3      15        0    0.0000
     92 C           0.1262  103.4927   82.5699 C.3      15        0    0.0000
     93 H           1.3836  102.5372   84.0570 H        15        0    0.0000
     94 H          -0.2861  101.9801   84.0691 H        15        0    0.0000
     95 H          -0.9341  103.7366   82.4295 H        15        0    0.0000
     96 H           0.6798  104.4365   82.4903 H        15        0    0.0000
     97 C           0.5831  102.5398   81.4120 C.3      16        0    0.0000
     98 C           0.3679  103.1625   80.0282 C.3      16        0    0.0000
     99 H           1.6430  102.2945   81.5534 H        16        0    0.0000
    100 H           0.0283  101.5966   81.4905 H        16        0    0.0000
    101 H           0.8464  102.5439   79.2588 H        16        0    0.0000
    102 H          -0.7027  103.1892   79.7901 H        16        0    0.0000
    103 C           0.9425  104.6180   79.9358 C.3      17        0    0.0000
    104 C           1.2608  105.0264   78.4932 C.3      17        0    0.0000
    105 H           0.2150  105.3138   80.3719 H        17        0    0.0000
    106 H           1.8475  104.6808   80.5528 H        17        0    0.0000
    107 H           0.3477  105.0027   77.8855 H        17        0    0.0000
    108 H           1.6298  106.0592   78.4673 H        17        0    0.0000
    109 C           2.3314  104.0906   77.8333 C.3      18        0    0.0000
    110 C           2.6967  104.5369   76.4133 C.3      18        0    0.0000
    111 H           3.2277  104.0777   78.4658 H        18        0    0.0000
    112 H           1.9426  103.0649   77.8169 H        18        0    0.0000
    113 H           3.5317  103.9354   76.0331 H        18        0    0.0000
    114 H           1.8510  104.3656   75.7359 H        18        0    0.0000
    115 C           3.0955  106.0517   76.3507 C.3      19        0    0.0000
    116 C           3.5175  106.4835   74.9420 C.3      19        0    0.0000
    117 H           2.2449  106.6555   76.6903 H        19        0    0.0000
    118 H           3.9128  106.2317   77.0600 H        19        0    0.0000
    119 H           2.9234  107.3476   74.6197 H        19        0    0.0000
    120 H           4.5661  106.8058   74.9456 H        19        0    0.0000
    121 C           3.3463  105.3325   73.8915 C.3      20        0    0.0000
    122 C           3.9826  105.6794   72.5410 C.3      20        0    0.0000
    123 H           3.7953  104.4163   74.2946 H        20        0    0.0000
    124 H           2.2763  105.1284   73.7619 H        20        0    0.0000
    125 H           3.8766  104.8359   71.8476 H        20        0    0.0000
    126 H           3.4590  106.5292   72.0857 H        20        0    0.0000
    127 C           5.5033  106.0356   72.6747 C.3      21        0    0.0000
    128 C           6.1144  106.4830   71.3423 C.3      21        0    0.0000
    129 H           5.6163  106.8278   73.4252 H        21        0    0.0000
    130 H           6.0394  105.1590   73.0589 H        21        0    0.0000
    131 H           7.1490  106.8143   71.4953 H        21        0    0.0000
    132 H           6.1543  105.6378   70.6440 H        21        0    0.0000
    133 C           5.3035  107.6489   70.6785 C.3      22        0    0.0000
    134 C           5.7851  107.9550   69.2560 C.3      22        0    0.0000
    135 H           4.2406  107.3778   70.6656 H        22        0    0.0000
    136 H           5.3927  108.5440   71.3065 H        22        0    0.0000
    137 H           6.8480  108.2262   69.2689 H        22        0    0.0000
    138 H           5.6959  107.0599   68.6279 H        22        0    0.0000
    139 H           5.2213  108.7656   68.7944 H        22        0    0.0000
    140 H          -0.7202  105.1487  121.7450 H         0        0    0.0000
@<TRIPOS>BOND
     1     1     2      1
     2     1     3      1
     3     1     4      1
     4     1   140      H
     5     2     5      1
     6     2     6      1
     7     2     7      1
     8     7     8      1
     9     7     9      1
    10     7    10      1
    11     8    11      1
    12     8    12      1
    13     8    13      1
    14    13    14      1
    15    13    15      1
    16    13    16      1
    17    14    17      1
    18    14    18      1
    19    14    19      1
    20    19    20      1
    21    19    21      1
    22    19    22      1
    23    20    23      1
    24    20    24      1
    25    20    25      1
    26    25    26      1
    27    25    27      1
    28    25    28      1
    29    26    29      1
    30    26    30      1
    31    26    31      1
    32    31    32      1
    33    31    33      1
    34    31    34      1
    35    32    35      1
    36    32    36      1
    37    32    37      1
    38    37    38      1
    39    37    39      1
    40    37    40      1
    41    38    41      1
    42    38    42      1
    43    38    43      1
    44    43    44      1
    45    43    45      1
    46    43    46      1
    47    44    47      1
    48    44    48      1
    49    44    49      1
    50    49    50      1
    51    49    51      1
    52    49    52      1
    53    50    53      1
    54    50    54      1
    55    50    55      1
    56    55    56      1
    57    55    57      1
    58    55    58      1
    59    56    59      1
    60    56    60      1
    61    56    61      1
    62    61    62      1
    63    61    63      1
    64    61    64      1
    65    62    65      1
    66    62    66      1
    67    62    67      1
    68    67    68      1
    69    67    69      1
    70    67    70      1
    71    68    71      1
    72    68    72      1
    73    68    73      1
    74    73    74      1
    75    73    75      1
    76    73    76      1
    77    74    77      1
    78    74    78      1
    79    74    79      1
    80    79    80      1
    81    79    81      1
    82    79    82      1
    83    80    83      1
    84    80    84      1
    85    80    85      1
    86    85    86      1
    87    85    87      1
    88    85    88      1
    89    86    89      1
    90    86    90      1
    91    86    91      1
    92    91    92      1
    93    91    93      1
    94    91    94      1
    95    92    95      1
    96    92    96      1
    97    92    97      1
    98    97    98      1
    99    97    99      1
   100    97   100      1
   101    98   101      1
   102    98   102      1
   103    98   103      1
   104   103   104      1
   105   103   105      1
   106   103   106      1
   107   104   107      1
   108   104   108      1
   109   104   109      1
   110   109   110      1
   111   109   111      1
   112   109   112      1
   113   110   113      1
   114   110   114      1
   115   110   115      1
   116   115   116      1
   117   115   117      1
   118   115   118      1
   119   116   119      1
   120   116   120      1
   121   116   121      1
   122   121   122      1
   123   121   123      1
   124   121   124      1
   125   122   125      1
   126   122   126      1
   127   122   127      1
   128   127   128      1
   129   127   129      1
   130   127   130      1
   131   128   131      1
   132   128   132      1
   133   128   133      1
   134   133   134      1
   135   133   135      1
   136   133   136      1
   137   134   137      1
   138   134   138      1
   139   134   139      H
