###
### Created by PolyChef-cpp17 on Thu Feb 27 19:40:28 2025
###

@<TRIPOS>MOLECULE
NO_INFO
296 295 1 0 0
SMALL
USER_CHARGES


@<TRIPOS>ATOM
      1 C          79.2798   70.5087  120.6551 C.3       0        0    0.0000
      2 C          78.4513   69.3575  120.0742 C.3       0        0    0.0000
      3 H          78.8875   71.4702  120.3014 H         0        0    0.0000
      4 H          80.3162   70.4421  120.3014 H         0        0    0.0000
      5 H          78.4076   68.5271  120.7897 H         0        0    0.0000
      6 H          77.4174   69.6847  119.9079 H         0        0    0.0000
      7 C          79.0376   68.8276  118.7204 C.3       1        0    0.0000
      8 C          79.6339   69.9518  117.8661 C.3       1        0    0.0000
      9 H          79.8042   68.0736  118.9380 H         1        0    0.0000
     10 H          78.2410   68.3161  118.1661 H         1        0    0.0000
     11 H          78.9424   70.8026  117.8281 H         1        0    0.0000
     12 H          80.5612   70.3197  118.3225 H         1        0    0.0000
     13 C          79.9422   69.4854  116.4015 C.3       2        0    0.0000
     14 C          79.8847   70.6432  115.3989 C.3       2        0    0.0000
     15 H          80.9347   69.0185  116.3806 H         2        0    0.0000
     16 H          79.2221   68.7073  116.1193 H         2        0    0.0000
     17 H          78.9649   71.2227  115.5458 H         2        0    0.0000
     18 H          80.7215   71.3315  115.5709 H         2        0    0.0000
     19 C          79.9367   70.1457  113.9133 C.3       3        0    0.0000
     20 C          79.8285   71.2995  112.9102 C.3       3        0    0.0000
     21 H          80.8741   69.5977  113.7565 H         3        0    0.0000
     22 H          79.1220   69.4291  113.7516 H         3        0    0.0000
     23 H          78.8951   71.8527  113.0725 H         3        0    0.0000
     24 H          80.6481   72.0119  113.0665 H         3        0    0.0000
     25 C          79.8687   70.8010  111.4245 C.3       4        0    0.0000
     26 C          79.7607   71.9548  110.4215 C.3       4        0    0.0000
     27 H          80.8021   70.2477  111.2624 H         4        0    0.0000
     28 H          79.0491   70.0887  111.2683 H         4        0    0.0000
     29 H          78.8268   72.5074  110.5830 H         4        0    0.0000
     30 H          80.5797   72.6676  110.5785 H         4        0    0.0000
     31 C          79.8025   71.4564  108.9358 C.3       5        0    0.0000
     32 C          80.7909   72.2581  108.0818 C.3       5        0    0.0000
     33 H          80.0737   70.3934  108.9270 H         5        0    0.0000
     34 H          78.7938   71.5277  108.5105 H         5        0    0.0000
     35 H          80.3805   73.2521  107.8650 H         5        0    0.0000
     36 H          81.7244   72.4166  108.6359 H         5        0    0.0000
     37 C          81.1226   71.5420  106.7273 C.3       6        0    0.0000
     38 C          80.7154   72.3815  105.5115 C.3       6        0    0.0000
     39 H          82.1983   71.3290  106.6942 H         6        0    0.0000
     40 H          80.6088   70.5729  106.7046 H         6        0    0.0000
     41 H          79.8937   73.0573  105.7792 H         6        0    0.0000
     42 H          81.5532   73.0144  105.1937 H         6        0    0.0000
     43 C          80.2651   71.4937  104.3004 C.3       7        0    0.0000
     44 C          80.8546   71.9809  102.9722 C.3       7        0    0.0000
     45 H          80.5699   70.4569  104.4894 H         7        0    0.0000
     46 H          79.1693   71.4954  104.2488 H         7        0    0.0000
     47 H          80.3913   72.9319  102.6814 H         7        0    0.0000
     48 H          81.9283   72.1752  103.0859 H         7        0    0.0000
     49 C          80.6486   70.9438  101.8148 C.3       8        0    0.0000
     50 C          80.7307   71.5951  100.4299 C.3       8        0    0.0000
     51 H          81.4075   70.1568  101.9060 H         8        0    0.0000
     52 H          79.6737   70.4578  101.9448 H         8        0    0.0000
     53 H          80.0396   72.4451  100.3723 H         8        0    0.0000
     54 H          81.7380   71.9961  100.2619 H         8        0    0.0000
     55 C          80.3895   70.5876   99.2784 C.3       9        0    0.0000
     56 C          80.5834   71.2056   97.8893 C.3       9        0    0.0000
     57 H          81.0236   69.6989   99.3866 H         9        0    0.0000
     58 H          79.3523   70.2510   99.3989 H         9        0    0.0000
     59 H          79.9308   72.0797   97.7721 H         9        0    0.0000
     60 H          81.6140   71.5647   97.7779 H         9        0    0.0000
     61 C          80.2758   70.1874   96.7378 C.3      10        0    0.0000
     62 C          80.4656   70.8067   95.3487 C.3      10        0    0.0000
     63 H          80.9306   69.3147   96.8532 H        10        0    0.0000
     64 H          79.2463   69.8259   96.8510 H        10        0    0.0000
     65 H          79.8097   71.6784   95.2328 H        10        0    0.0000
     66 H          81.4948   71.1696   95.2361 H        10        0    0.0000
     67 C          80.1602   69.7878   94.1972 C.3      11        0    0.0000
     68 C          80.3417   70.4097   92.8081 C.3      11        0    0.0000
     69 H          80.8205   68.9189   94.3095 H        11        0    0.0000
     70 H          79.1332   69.4202   94.3135 H        11        0    0.0000
     71 H          79.6822   71.2792   92.6962 H        11        0    0.0000
     72 H          81.3691   70.7764   92.6915 H        11        0    0.0000
     73 C          80.0348   69.3912   91.6566 C.3      12        0    0.0000
     74 C          80.2178   70.0126   90.2675 C.3      12        0    0.0000
     75 H          80.6936   68.5212   91.7692 H        12        0    0.0000
     76 H          79.0071   69.0254   91.7727 H        12        0    0.0000
     77 H          79.5577   70.8815   90.1543 H        12        0    0.0000
     78 H          81.2450   70.3802   90.1522 H        12        0    0.0000
     79 C          79.9136   68.9933   89.1160 C.3      13        0    0.0000
     80 C          80.0984   69.6141   87.7270 C.3      13        0    0.0000
     81 H          80.5727   68.1238   89.2302 H        13        0    0.0000
     82 H          78.8859   68.6268   89.2305 H        13        0    0.0000
     83 H          79.4415   70.4855   87.6139 H        13        0    0.0000
     84 H          81.1269   69.9779   87.6114 H        13        0    0.0000
     85 C          79.7901   68.5961   86.5754 C.3      14        0    0.0000
     86 C          79.9738   69.2173   85.1864 C.3      14        0    0.0000
     87 H          80.4476   67.7252   86.6879 H        14        0    0.0000
     88 H          78.7619   68.2317   86.6915 H        14        0    0.0000
     89 H          79.3362   70.1041   85.0836 H        14        0    0.0000
     90 H          81.0091   69.5574   85.0603 H        14        0    0.0000
     91 C          79.6288   68.2108   84.0351 C.3      15        0    0.0000
     92 C          79.8058   68.8341   82.6462 C.3      15        0    0.0000
     93 H          80.2700   67.3262   84.1349 H        15        0    0.0000
     94 H          78.5951   67.8668   84.1641 H        15        0    0.0000
     95 H          79.0969   69.6605   82.5116 H        15        0    0.0000
     96 H          80.8112   69.2629   82.5516 H        15        0    0.0000
     97 C          79.5909   67.7916   81.4953 C.3      16        0    0.0000
     98 C          79.7880   68.4101   80.1070 C.3      16        0    0.0000
     99 H          80.2895   66.9579   81.6384 H        16        0    0.0000
    100 H          78.5801   67.3738   81.5809 H        16        0    0.0000
    101 H          79.7800   67.6250   79.3408 H        16        0    0.0000
    102 H          78.9555   69.0857   79.8745 H        16        0    0.0000
    103 C          81.1325   69.2089   79.9979 C.3      17        0    0.0000
    104 C          81.2391   69.9899   78.6834 C.3      17        0    0.0000
    105 H          81.2060   69.8955   80.8504 H        17        0    0.0000
    106 H          81.9698   68.5056   80.0866 H        17        0    0.0000
    107 H          81.1334   71.0649   78.8750 H        17        0    0.0000
    108 H          82.2318   69.8451   78.2394 H        17        0    0.0000
    109 C          80.1514   69.5527   77.6427 C.3      18        0    0.0000
    110 C          80.3334   70.2441   76.2870 C.3      18        0    0.0000
    111 H          80.1980   68.4636   77.5188 H        18        0    0.0000
    112 H          79.1591   69.7811   78.0512 H        18        0    0.0000
    113 H          79.6114   69.8475   75.5625 H        18        0    0.0000
    114 H          80.1276   71.3175   76.3816 H        18        0    0.0000
    115 C          81.7801   70.0556   75.7135 C.3      19        0    0.0000
    116 C          82.0213   70.8993   74.4570 C.3      19        0    0.0000
    117 H          82.5064   70.3228   76.4911 H        19        0    0.0000
    118 H          81.9358   68.9931   75.4888 H        19        0    0.0000
    119 H          82.7077   71.7245   74.6840 H        19        0    0.0000
    120 H          82.5051   70.2911   73.6826 H        19        0    0.0000
    121 C          80.6920   71.4932   73.8759 C.3      20        0    0.0000
    122 C          80.9456   72.4462   72.7027 C.3      20        0    0.0000
    123 H          80.0455   70.6665   73.5561 H        20        0    0.0000
    124 H          80.1587   72.0179   74.6783 H        20        0    0.0000
    125 H          80.2917   72.1882   71.8604 H        20        0    0.0000
    126 H          80.6953   73.4743   72.9923 H        20        0    0.0000
    127 C          82.4354   72.4067   72.2164 C.3      21        0    0.0000
    128 C          82.7478   73.5200   71.2105 C.3      21        0    0.0000
    129 H          83.0945   72.4924   73.0892 H        21        0    0.0000
    130 H          82.6345   71.4262   71.7663 H        21        0    0.0000
    131 H          83.3945   73.1352   70.4123 H        21        0    0.0000
    132 H          81.8233   73.8625   70.7293 H        21        0    0.0000
    133 C          83.4522   74.7482   71.8835 C.3      22        0    0.0000
    134 C          83.8409   75.8250   70.8644 C.3      22        0    0.0000
    135 H          82.7791   75.1713   72.6395 H        22        0    0.0000
    136 H          84.3436   74.3959   72.4171 H        22        0    0.0000
    137 H          84.3897   75.3721   70.0294 H        22        0    0.0000
    138 H          82.9395   76.2822   70.4379 H        22        0    0.0000
    139 C          84.7268   76.9517   71.4994 C.3      23        0    0.0000
    140 C          85.0964   78.0404   70.4859 C.3      23        0    0.0000
    141 H          84.1850   77.3932   72.3449 H        23        0    0.0000
    142 H          85.6362   76.4966   71.9110 H        23        0    0.0000
    143 H          85.6987   77.6112   69.6756 H        23        0    0.0000
    144 H          84.1888   78.4468   70.0226 H        23        0    0.0000
    145 C          85.8981   79.2164   71.1431 C.3      24        0    0.0000
    146 C          86.2402   80.3201   70.1362 C.3      24        0    0.0000
    147 H          85.3057   79.6305   71.9683 H        24        0    0.0000
    148 H          86.8172   78.8134   71.5863 H        24        0    0.0000
    149 H          86.8533   79.9111   69.3236 H        24        0    0.0000
    150 H          85.3227   80.7062   69.6751 H        24        0    0.0000
    151 C          87.0120   81.5120   70.8007 C.3      25        0    0.0000
    152 C          86.8785   82.8103   69.9972 C.3      25        0    0.0000
    153 H          86.6285   81.6582   71.8181 H        25        0    0.0000
    154 H          88.0696   81.2375   70.8989 H        25        0    0.0000
    155 H          87.3978   82.7127   69.0357 H        25        0    0.0000
    156 H          85.8233   83.0035   69.7671 H        25        0    0.0000
    157 C          87.4630   84.0463   70.7640 C.3      26        0    0.0000
    158 C          86.5458   85.2711   70.6764 C.3      26        0    0.0000
    159 H          87.6208   83.7689   71.8136 H        26        0    0.0000
    160 H          88.4502   84.2852   70.3494 H        26        0    0.0000
    161 H          86.8835   85.9372   69.8727 H        26        0    0.0000
    162 H          85.5257   84.9596   70.4195 H        26        0    0.0000
    163 C          86.5044   86.0796   72.0188 C.3      27        0    0.0000
    164 C          87.5754   87.1747   72.0706 C.3      27        0    0.0000
    165 H          85.5074   86.5227   72.1341 H        27        0    0.0000
    166 H          86.6381   85.3828   72.8555 H        27        0    0.0000
    167 H          87.9123   87.4197   71.0557 H        27        0    0.0000
    168 H          87.1526   88.0947   72.4928 H        27        0    0.0000
    169 C          88.8181   86.7503   72.9268 C.3      28        0    0.0000
    170 C          89.1178   87.7489   74.0502 C.3      28        0    0.0000
    171 H          88.6337   85.7543   73.3481 H        28        0    0.0000
    172 H          89.6880   86.6564   72.2651 H        28        0    0.0000
    173 H          89.9009   88.4485   73.7327 H        28        0    0.0000
    174 H          88.2264   88.3508   74.2662 H        28        0    0.0000
    175 C          89.5795   87.0384   75.3691 C.3      29        0    0.0000
    176 C          89.0940   87.7716   76.6245 C.3      29        0    0.0000
    177 H          89.2029   86.0080   75.3661 H        29        0    0.0000
    178 H          90.6746   86.9736   75.3712 H        29        0    0.0000
    179 H          89.5253   88.7796   76.6617 H        29        0    0.0000
    180 H          88.0046   87.8962   76.5897 H        29        0    0.0000
    181 C          89.4738   87.0105   77.9412 C.3      30        0    0.0000
    182 C          89.3176   87.8904   79.1864 C.3      30        0    0.0000
    183 H          88.8411   86.1186   78.0292 H        30        0    0.0000
    184 H          90.5087   86.6558   77.8587 H        30        0    0.0000
    185 H          89.8816   88.8231   79.0611 H        30        0    0.0000
    186 H          88.2659   88.1735   79.3175 H        30        0    0.0000
    187 C          89.8134   87.1712   80.4881 C.3      31        0    0.0000
    188 C          89.4842   87.9698   81.7542 C.3      31        0    0.0000
    189 H          89.3526   86.1770   80.5401 H        31        0    0.0000
    190 H          90.8964   87.0131   80.4141 H        31        0    0.0000
    191 H          90.0171   88.9287   81.7433 H        31        0    0.0000
    192 H          88.4130   88.2051   81.7826 H        31        0    0.0000
    193 C          89.8660   87.1942   83.0619 C.3      32        0    0.0000
    194 C          89.3847   87.9148   84.3261 C.3      32        0    0.0000
    195 H          89.4331   86.1873   83.0150 H        32        0    0.0000
    196 H          90.9553   87.0677   83.0927 H        32        0    0.0000
    197 H          89.8329   88.9145   84.3829 H        32        0    0.0000
    198 H          88.2978   88.0586   84.2864 H        32        0    0.0000
    199 C          89.7427   87.1256   85.6324 C.3      33        0    0.0000
    200 C          89.3473   87.8909   86.9001 C.3      33        0    0.0000
    201 H          89.2369   86.1524   85.6074 H        33        0    0.0000
    202 H          90.8203   86.9205   85.6376 H        33        0    0.0000
    203 H          89.8323   88.8748   86.9122 H        33        0    0.0000
    204 H          88.2655   88.0728   86.9077 H        33        0    0.0000
    205 C          89.7389   87.1185   88.2068 C.3      34        0    0.0000
    206 C          89.3467   87.8854   89.4745 C.3      34        0    0.0000
    207 H          89.2518   86.1355   88.1960 H        34        0    0.0000
    208 H          90.8204   86.9343   88.1981 H        34        0    0.0000
    209 H          89.8350   88.8677   89.4861 H        34        0    0.0000
    210 H          88.2654   88.0709   89.4825 H        34        0    0.0000
    211 C          89.7363   87.1119   90.7812 C.3      35        0    0.0000
    212 C          89.3520   87.8828   92.0490 C.3      35        0    0.0000
    213 H          89.2428   86.1322   90.7727 H        35        0    0.0000
    214 H          90.8165   86.9207   90.7702 H        35        0    0.0000
    215 H          89.8445   88.8631   92.0569 H        35        0    0.0000
    216 H          88.2716   88.0730   92.0606 H        35        0    0.0000
    217 C          89.7432   87.1102   93.3556 C.3      36        0    0.0000
    218 C          89.3544   87.8788   94.6234 C.3      36        0    0.0000
    219 H          89.2537   86.1285   93.3459 H        36        0    0.0000
    220 H          90.8242   86.9234   93.3457 H        36        0    0.0000
    221 H          89.8464   88.8592   94.6347 H        36        0    0.0000
    222 H          88.2739   88.0685   94.6317 H        36        0    0.0000
    223 C          89.7415   87.1041   95.9301 C.3      37        0    0.0000
    224 C          89.3627   87.8777   97.1978 C.3      37        0    0.0000
    225 H          89.2429   86.1269   95.9226 H        37        0    0.0000
    226 H          90.8207   86.9072   95.9179 H        37        0    0.0000
    227 H          89.8621   88.8544   97.2057 H        37        0    0.0000
    228 H          88.2837   88.0755   97.2094 H        37        0    0.0000
    229 C          89.7484   87.1023   98.5045 C.3      38        0    0.0000
    230 C          89.3677   87.8749   99.7722 C.3      38        0    0.0000
    231 H          89.2503   86.1249   98.4957 H        38        0    0.0000
    232 H          90.8277   86.9059   98.4936 H        38        0    0.0000
    233 H          89.8646   88.8530   99.7801 H        38        0    0.0000
    234 H          88.2881   88.0699   99.7839 H        38        0    0.0000
    235 C          89.7554   87.1005  101.0789 C.3      39        0    0.0000
    236 C          89.3663   87.8690  102.3466 C.3      39        0    0.0000
    237 H          89.2639   86.1198  101.0677 H        39        0    0.0000
    238 H          90.8360   86.9115  101.0704 H        39        0    0.0000
    239 H          89.8589   88.8492  102.3584 H        39        0    0.0000
    240 H          88.2859   88.0593  102.3544 H        39        0    0.0000
    241 C          89.7523   87.0937  103.6533 C.3      40        0    0.0000
    242 C          89.3668   87.8640  104.9210 C.3      40        0    0.0000
    243 H          89.2574   86.1147  103.6429 H        40        0    0.0000
    244 H          90.8322   86.9009  103.6441 H        40        0    0.0000
    245 H          89.8580   88.8449  104.9292 H        40        0    0.0000
    246 H          88.2862   88.0528  104.9325 H        40        0    0.0000
    247 C          89.7587   87.0917  106.2277 C.3      41        0    0.0000
    248 C          89.3643   87.8574  107.4954 C.3      41        0    0.0000
    249 H          89.2733   86.1080  106.2161 H        41        0    0.0000
    250 H          90.8405   86.9093  106.2196 H        41        0    0.0000
    251 H          89.8507   88.8407  107.5076 H        41        0    0.0000
    252 H          88.2827   88.0409  107.5029 H        41        0    0.0000
    253 C          89.7547   87.0843  108.8021 C.3      42        0    0.0000
    254 C          89.3634   87.8516  110.0698 C.3      42        0    0.0000
    255 H          89.2662   86.1021  108.7911 H        42        0    0.0000
    256 H          90.8359   86.8986  108.7934 H        42        0    0.0000
    257 H          89.8528   88.8334  110.0814 H        42        0    0.0000
    258 H          88.2824   88.0384  110.0779 H        42        0    0.0000
    259 C          89.7523   87.0778  111.3765 C.3      43        0    0.0000
    260 C          89.3694   87.8493  112.6442 C.3      43        0    0.0000
    261 H          89.2575   86.0987  111.3681 H        43        0    0.0000
    262 H          90.8323   86.8851  111.3652 H        43        0    0.0000
    263 H          89.8618   88.8297  112.6511 H        43        0    0.0000
    264 H          88.2890   88.0393  112.6571 H        43        0    0.0000
    265 C          89.7623   87.0774  113.9509 C.3      44        0    0.0000
    266 C          89.3712   87.8448  115.2186 C.3      44        0    0.0000
    267 H          89.2753   86.0944  113.9409 H        44        0    0.0000
    268 H          90.8438   86.8933  113.9412 H        44        0    0.0000
    269 H          89.8604   88.8267  115.2300 H        44        0    0.0000
    270 H          88.2902   88.0313  115.2270 H        44        0    0.0000
    271 C          89.7606   87.0711  116.5253 C.3      45        0    0.0000
    272 C          89.3772   87.8424  117.7931 C.3      45        0    0.0000
    273 H          89.2663   86.0917  116.5169 H        45        0    0.0000
    274 H          90.8406   86.8790  116.5140 H        45        0    0.0000
    275 H          89.8738   88.8206  117.8029 H        45        0    0.0000
    276 H          88.2976   88.0370  117.8029 H        45        0    0.0000
    277 C          89.7628   87.0668  119.0997 C.3      46        0    0.0000
    278 C          89.4077   87.8518  120.3673 C.3      46        0    0.0000
    279 H          89.2483   86.0979  119.1007 H        46        0    0.0000
    280 H          90.8385   86.8523  119.0791 H        46        0    0.0000
    281 H          89.9149   88.8245  120.3619 H        46        0    0.0000
    282 H          88.3305   88.0583  120.3924 H        46        0    0.0000
    283 C          89.8051   87.0819  121.6737 C.3      47        0    0.0000
    284 C          88.6601   87.0350  122.6914 C.3      47        0    0.0000
    285 H          90.1112   86.0634  121.4047 H        47        0    0.0000
    286 H          90.6830   87.5679  122.1173 H        47        0    0.0000
    287 H          88.9662   86.4630  123.5760 H        47        0    0.0000
    288 H          88.4232   88.0486  123.0381 H        47        0    0.0000
    289 C          87.3621   86.3885  122.0959 C.3      48        0    0.0000
    290 C          86.8249   85.2515  122.9721 C.3      48        0    0.0000
    291 H          86.5989   87.1683  121.9819 H        48        0    0.0000
    292 H          87.5834   86.0146  121.0885 H        48        0    0.0000
    293 H          87.5881   84.4717  123.0862 H        48        0    0.0000
    294 H          86.6035   85.6254  123.9795 H        48        0    0.0000
    295 H          85.9224   84.8019  122.5581 H        48        0    0.0000
    296 H          79.2798   70.5087  121.7450 H         0        0    0.0000
@<TRIPOS>BOND
     1     1     2      1
     2     1     3      1
     3     1     4      1
     4     1   296      H
     5     2     5      1
     6     2     6      1
     7     2     7      1
     8     7     8      1
     9     7     9      1
    10     7    10      1
    11     8    11      1
    12     8    12      1
    13     8    13      1
    14    13    14      1
    15    13    15      1
    16    13    16      1
    17    14    17      1
    18    14    18      1
    19    14    19      1
    20    19    20      1
    21    19    21      1
    22    19    22      1
    23    20    23      1
    24    20    24      1
    25    20    25      1
    26    25    26      1
    27    25    27      1
    28    25    28      1
    29    26    29      1
    30    26    30      1
    31    26    31      1
    32    31    32      1
    33    31    33      1
    34    31    34      1
    35    32    35      1
    36    32    36      1
    37    32    37      1
    38    37    38      1
    39    37    39      1
    40    37    40      1
    41    38    41      1
    42    38    42      1
    43    38    43      1
    44    43    44      1
    45    43    45      1
    46    43    46      1
    47    44    47      1
    48    44    48      1
    49    44    49      1
    50    49    50      1
    51    49    51      1
    52    49    52      1
    53    50    53      1
    54    50    54      1
    55    50    55      1
    56    55    56      1
    57    55    57      1
    58    55    58      1
    59    56    59      1
    60    56    60      1
    61    56    61      1
    62    61    62      1
    63    61    63      1
    64    61    64      1
    65    62    65      1
    66    62    66      1
    67    62    67      1
    68    67    68      1
    69    67    69      1
    70    67    70      1
    71    68    71      1
    72    68    72      1
    73    68    73      1
    74    73    74      1
    75    73    75      1
    76    73    76      1
    77    74    77      1
    78    74    78      1
    79    74    79      1
    80    79    80      1
    81    79    81      1
    82    79    82      1
    83    80    83      1
    84    80    84      1
    85    80    85      1
    86    85    86      1
    87    85    87      1
    88    85    88      1
    89    86    89      1
    90    86    90      1
    91    86    91      1
    92    91    92      1
    93    91    93      1
    94    91    94      1
    95    92    95      1
    96    92    96      1
    97    92    97      1
    98    97    98      1
    99    97    99      1
   100    97   100      1
   101    98   101      1
   102    98   102      1
   103    98   103      1
   104   103   104      1
   105   103   105      1
   106   103   106      1
   107   104   107      1
   108   104   108      1
   109   104   109      1
   110   109   110      1
   111   109   111      1
   112   109   112      1
   113   110   113      1
   114   110   114      1
   115   110   115      1
   116   115   116      1
   117   115   117      1
   118   115   118      1
   119   116   119      1
   120   116   120      1
   121   116   121      1
   122   121   122      1
   123   121   123      1
   124   121   124      1
   125   122   125      1
   126   122   126      1
   127   122   127      1
   128   127   128      1
   129   127   129      1
   130   127   130      1
   131   128   131      1
   132   128   132      1
   133   128   133      1
   134   133   134      1
   135   133   135      1
   136   133   136      1
   137   134   137      1
   138   134   138      1
   139   134   139      1
   140   139   140      1
   141   139   141      1
   142   139   142      1
   143   140   143      1
   144   140   144      1
   145   140   145      1
   146   145   146      1
   147   145   147      1
   148   145   148      1
   149   146   149      1
   150   146   150      1
   151   146   151      1
   152   151   152      1
   153   151   153      1
   154   151   154      1
   155   152   155      1
   156   152   156      1
   157   152   157      1
   158   157   158      1
   159   157   159      1
   160   157   160      1
   161   158   161      1
   162   158   162      1
   163   158   163      1
   164   163   164      1
   165   163   165      1
   166   163   166      1
   167   164   167      1
   168   164   168      1
   169   164   169      1
   170   169   170      1
   171   169   171      1
   172   169   172      1
   173   170   173      1
   174   170   174      1
   175   170   175      1
   176   175   176      1
   177   175   177      1
   178   175   178      1
   179   176   179      1
   180   176   180      1
   181   176   181      1
   182   181   182      1
   183   181   183      1
   184   181   184      1
   185   182   185      1
   186   182   186      1
   187   182   187      1
   188   187   188      1
   189   187   189      1
   190   187   190      1
   191   188   191      1
   192   188   192      1
   193   188   193      1
   194   193   194      1
   195   193   195      1
   196   193   196      1
   197   194   197      1
   198   194   198      1
   199   194   199      1
   200   199   200      1
   201   199   201      1
   202   199   202      1
   203   200   203      1
   204   200   204      1
   205   200   205      1
   206   205   206      1
   207   205   207      1
   208   205   208      1
   209   206   209      1
   210   206   210      1
   211   206   211      1
   212   211   212      1
   213   211   213      1
   214   211   214      1
   215   212   215      1
   216   212   216      1
   217   212   217      1
   218   217   218      1
   219   217   219      1
   220   217   220      1
   221   218   221      1
   222   218   222      1
   223   218   223      1
   224   223   224      1
   225   223   225      1
   226   223   226      1
   227   224   227      1
   228   224   228      1
   229   224   229      1
   230   229   230      1
   231   229   231      1
   232   229   232      1
   233   230   233      1
   234   230   234      1
   235   230   235      1
   236   235   236      1
   237   235   237      1
   238   235   238      1
   239   236   239      1
   240   236   240      1
   241   236   241      1
   242   241   242      1
   243   241   243      1
   244   241   244      1
   245   242   245      1
   246   242   246      1
   247   242   247      1
   248   247   248      1
   249   247   249      1
   250   247   250      1
   251   248   251      1
   252   248   252      1
   253   248   253      1
   254   253   254      1
   255   253   255      1
   256   253   256      1
   257   254   257      1
   258   254   258      1
   259   254   259      1
   260   259   260      1
   261   259   261      1
   262   259   262      1
   263   260   263      1
   264   260   264      1
   265   260   265      1
   266   265   266      1
   267   265   267      1
   268   265   268      1
   269   266   269      1
   270   266   270      1
   271   266   271      1
   272   271   272      1
   273   271   273      1
   274   271   274      1
   275   272   275      1
   276   272   276      1
   277   272   277      1
   278   277   278      1
   279   277   279      1
   280   277   280      1
   281   278   281      1
   282   278   282      1
   283   278   283      1
   284   283   284      1
   285   283   285      1
   286   283   286      1
   287   284   287      1
   288   284   288      1
   289   284   289      1
   290   289   290      1
   291   289   291      1
   292   289   292      1
   293   290   293      1
   294   290   294      1
   295   290   295      H
