###
### Created by PolyChef-cpp17 on Thu Feb 27 19:40:28 2025
###

@<TRIPOS>MOLECULE
NO_INFO
278 277 1 0 0
SMALL
USER_CHARGES


@<TRIPOS>ATOM
      1 C         149.2798   53.1887  -39.3449 C.3       0        0    0.0000
      2 C         147.8706   53.0282  -38.7641 C.3       0        0    0.0000
      3 H         149.9271   52.3766  -38.9913 H         0        0    0.0000
      4 H         149.7280   54.1255  -38.9913 H         0        0    0.0000
      5 H         147.3724   54.0042  -38.7104 H         0        0    0.0000
      6 H         147.2609   52.3992  -39.4245 H         0        0    0.0000
      7 C         147.8873   52.3900  -37.3323 C.3       1        0    0.0000
      8 C         149.1649   52.7331  -36.5583 C.3       1        0    0.0000
      9 H         147.0069   52.7397  -36.7790 H         1        0    0.0000
     10 H         147.7868   51.3018  -37.4291 H         1        0    0.0000
     11 H         150.0455   52.5537  -37.1875 H         1        0    0.0000
     12 H         149.1737   53.7994  -36.3007 H         1        0    0.0000
     13 C         149.3053   51.8939  -35.2417 C.3       2        0    0.0000
     14 C         150.2083   52.5788  -34.2099 C.3       2        0    0.0000
     15 H         148.3065   51.7309  -34.8181 H         2        0    0.0000
     16 H         149.7057   50.9043  -35.4941 H         2        0    0.0000
     17 H         151.2617   52.4520  -34.4890 H         2        0    0.0000
     18 H         150.0135   53.6583  -34.1972 H         2        0    0.0000
     19 C         149.9966   52.0100  -32.7645 C.3       3        0    0.0000
     20 C         150.6265   52.9038  -31.6906 C.3       3        0    0.0000
     21 H         148.9203   51.9029  -32.5809 H         3        0    0.0000
     22 H         150.4265   51.0020  -32.7147 H         3        0    0.0000
     23 H         151.7159   52.9330  -31.8170 H         3        0    0.0000
     24 H         150.2687   53.9349  -31.8020 H         3        0    0.0000
     25 C         150.2993   52.4094  -30.2394 C.3       4        0    0.0000
     26 C         150.9191   53.3102  -29.1654 C.3       4        0    0.0000
     27 H         149.2099   52.3717  -30.1159 H         4        0    0.0000
     28 H         150.6651   51.3815  -30.1252 H         4        0    0.0000
     29 H         152.0088   53.3458  -29.2872 H         4        0    0.0000
     30 H         150.5554   54.3387  -29.2812 H         4        0    0.0000
     31 C         150.5889   52.8179  -27.7141 C.3       5        0    0.0000
     32 C         151.1894   53.7316  -26.6401 C.3       5        0    0.0000
     33 H         149.4992   52.7663  -27.5977 H         5        0    0.0000
     34 H         150.9675   51.7954  -27.5928 H         5        0    0.0000
     35 H         152.2795   53.7801  -26.7541 H         5        0    0.0000
     36 H         150.8139   54.7549  -26.7638 H         5        0    0.0000
     37 C         150.8545   53.2424  -25.1889 C.3       6        0    0.0000
     38 C         151.5069   54.1200  -24.1150 C.3       6        0    0.0000
     39 H         149.7650   53.2376  -25.0600 H         6        0    0.0000
     40 H         151.1892   52.2034  -25.0799 H         6        0    0.0000
     41 H         152.5958   54.1307  -24.2484 H         6        0    0.0000
     42 H         151.1666   55.1577  -24.2194 H         6        0    0.0000
     43 C         151.1804   53.6248  -22.6640 C.3       7        0    0.0000
     44 C         151.0385   54.7849  -21.6724 C.3       7        0    0.0000
     45 H         150.2541   53.0375  -22.6908 H         7        0    0.0000
     46 H         151.9755   52.9441  -22.3353 H         7        0    0.0000
     47 H         152.0059   55.2843  -21.5369 H         7        0    0.0000
     48 H         150.3481   55.5384  -22.0713 H         7        0    0.0000
     49 C         150.5147   54.3099  -20.2733 C.3       8        0    0.0000
     50 C         151.4364   54.7465  -19.1292 C.3       8        0    0.0000
     51 H         149.5060   54.7123  -20.1182 H         8        0    0.0000
     52 H         150.4197   53.2170  -20.2837 H         8        0    0.0000
     53 H         152.4823   54.7245  -19.4595 H         8        0    0.0000
     54 H         151.2176   55.7832  -18.8447 H         8        0    0.0000
     55 C         151.2867   53.8329  -17.8641 C.3       9        0    0.0000
     56 C         151.0338   54.6441  -16.5886 C.3       9        0    0.0000
     57 H         150.4621   53.1290  -18.0319 H         9        0    0.0000
     58 H         152.1971   53.2310  -17.7529 H         9        0    0.0000
     59 H         151.9562   55.1479  -16.2741 H         9        0    0.0000
     60 H         150.2955   55.4317  -16.7838 H         9        0    0.0000
     61 C         150.5187   53.7501  -15.4083 C.3      10        0    0.0000
     62 C         150.9278   54.3036  -14.0390 C.3      10        0    0.0000
     63 H         149.4261   53.6748  -15.4725 H        10        0    0.0000
     64 H         150.9125   52.7342  -15.5364 H        10        0    0.0000
     65 H         152.0062   54.5044  -14.0213 H        10        0    0.0000
     66 H         150.4259   55.2617  -13.8553 H        10        0    0.0000
     67 C         150.5783   53.3179  -12.8712 C.3      11        0    0.0000
     68 C         150.8112   53.9452  -11.4923 C.3      11        0    0.0000
     69 H         149.5306   53.0083  -12.9714 H        11        0    0.0000
     70 H         151.1864   52.4114  -12.9797 H        11        0    0.0000
     71 H         151.8667   54.2221  -11.3785 H        11        0    0.0000
     72 H         150.2306   54.8711  -11.3973 H        11        0    0.0000
     73 C         150.4140   52.9776  -10.3246 C.3      12        0    0.0000
     74 C         150.6615   53.5990   -8.9457 C.3      12        0    0.0000
     75 H         149.3556   52.7096  -10.4320 H        12        0    0.0000
     76 H         150.9864   52.0472  -10.4262 H        12        0    0.0000
     77 H         151.7194   53.8696   -8.8394 H        12        0    0.0000
     78 H         150.0869   54.5279   -8.8430 H        12        0    0.0000
     79 C         150.2682   52.6298   -7.7780 C.3      13        0    0.0000
     80 C         150.5246   53.2476   -6.3990 C.3      13        0    0.0000
     81 H         149.2085   52.3647   -7.8803 H        13        0    0.0000
     82 H         150.8377   51.6982   -7.8846 H        13        0    0.0000
     83 H         151.5838   53.5144   -6.2974 H        13        0    0.0000
     84 H         149.9536   54.1783   -6.2917 H        13        0    0.0000
     85 C         150.1336   52.2775   -5.2314 C.3      14        0    0.0000
     86 C         150.4080   52.8879   -3.8525 C.3      14        0    0.0000
     87 H         149.0709   52.0218   -5.3248 H        14        0    0.0000
     88 H         150.6941   51.3415   -5.3466 H        14        0    0.0000
     89 H         151.4710   53.1424   -3.7585 H        14        0    0.0000
     90 H         149.8484   53.8245   -3.7377 H        14        0    0.0000
     91 C         150.0154   51.9184   -2.6848 C.3      15        0    0.0000
     92 C         150.2235   52.5552   -1.3064 C.3      15        0    0.0000
     93 H         148.9661   51.6230   -2.8082 H        15        0    0.0000
     94 H         150.6127   51.0022   -2.7700 H        15        0    0.0000
     95 H         151.2849   52.7887   -1.1562 H        15        0    0.0000
     96 H         149.6801   53.5063   -1.2454 H        15        0    0.0000
     97 C         149.7416   51.6225   -0.1422 C.3      16        0    0.0000
     98 C         149.8190   52.3121    1.2244 C.3      16        0    0.0000
     99 H         148.7112   51.3060   -0.3460 H        16        0    0.0000
    100 H         150.3558   50.7135   -0.1402 H        16        0    0.0000
    101 H         148.8089   52.4920    1.6127 H        16        0    0.0000
    102 H         150.3227   51.6586    1.9475 H        16        0    0.0000
    103 C         150.5855   53.6779    1.1581 C.3      17        0    0.0000
    104 C         150.4081   54.5061    2.4355 C.3      17        0    0.0000
    105 H         151.6501   53.4779    0.9844 H        17        0    0.0000
    106 H         150.2255   54.2436    0.2899 H        17        0    0.0000
    107 H         149.3777   54.4171    2.8014 H        17        0    0.0000
    108 H         151.0588   54.1180    3.2289 H        17        0    0.0000
    109 C         150.7351   56.0227    2.2104 C.3      18        0    0.0000
    110 C         150.9297   56.7770    3.5303 C.3      18        0    0.0000
    111 H         151.6398   56.1018    1.5950 H        18        0    0.0000
    112 H         149.9208   56.4782    1.6334 H        18        0    0.0000
    113 H         149.9854   57.2408    3.8413 H        18        0    0.0000
    114 H         151.2136   56.0766    4.3256 H        18        0    0.0000
    115 C         152.0279   57.8905    3.4219 C.3      19        0    0.0000
    116 C         152.3560   58.5170    4.7817 C.3      19        0    0.0000
    117 H         152.9324   57.4533    2.9811 H        19        0    0.0000
    118 H         151.6800   58.6635    2.7256 H        19        0    0.0000
    119 H         151.7908   59.4481    4.9130 H        19        0    0.0000
    120 H         152.0463   57.8438    5.5906 H        19        0    0.0000
    121 C         153.8845   58.8272    4.9396 C.3      20        0    0.0000
    122 C         154.1965   59.5576    6.2504 C.3      20        0    0.0000
    123 H         154.4433   57.8844    4.8921 H        20        0    0.0000
    124 H         154.2128   59.4315    4.0849 H        20        0    0.0000
    125 H         153.2978   60.0662    6.6208 H        20        0    0.0000
    126 H         154.4908   58.8358    7.0224 H        20        0    0.0000
    127 C         155.3425   60.6142    6.0835 C.3      21        0    0.0000
    128 C         155.1882   61.7956    7.0477 C.3      21        0    0.0000
    129 H         156.3072   60.1184    6.2474 H        21        0    0.0000
    130 H         155.3446   60.9727    5.0466 H        21        0    0.0000
    131 H         154.1363   62.1025    7.1013 H        21        0    0.0000
    132 H         155.4806   61.4945    8.0613 H        21        0    0.0000
    133 C         156.0535   63.0301    6.6179 C.3      22        0    0.0000
    134 C         155.3040   64.3550    6.7962 C.3      22        0    0.0000
    135 H         156.9771   63.0378    7.2098 H        22        0    0.0000
    136 H         156.3521   62.9049    5.5697 H        22        0    0.0000
    137 H         154.2260   64.1978    6.6667 H        22        0    0.0000
    138 H         155.4469   64.7338    7.8158 H        22        0    0.0000
    139 C         155.7808   65.4488    5.7794 C.3      23        0    0.0000
    140 C         156.6746   66.5048    6.4390 C.3      23        0    0.0000
    141 H         156.3201   64.9584    4.9596 H        23        0    0.0000
    142 H         154.8990   65.9268    5.3349 H        23        0    0.0000
    143 H         156.0791   67.3854    6.7102 H        23        0    0.0000
    144 H         157.0970   66.1107    7.3716 H        23        0    0.0000
    145 C         157.8487   66.9573    5.5040 C.3      24        0    0.0000
    146 C         157.6028   68.3402    4.8905 C.3      24        0    0.0000
    147 H         158.7801   66.9632    6.0835 H        24        0    0.0000
    148 H         157.9763   66.2110    4.7101 H        24        0    0.0000
    149 H         156.5289   68.5646    4.8871 H        24        0    0.0000
    150 H         158.0843   69.1138    5.5015 H        24        0    0.0000
    151 C         158.1455   68.4444    3.4236 C.3      25        0    0.0000
    152 C         158.5756   69.8707    3.0633 C.3      25        0    0.0000
    153 H         158.9922   67.7562    3.3101 H        25        0    0.0000
    154 H         157.3655   68.1010    2.7327 H        25        0    0.0000
    155 H         157.7029   70.5355    3.0529 H        25        0    0.0000
    156 H         159.2600   70.2613    3.8266 H        25        0    0.0000
    157 C         159.2826   69.9430    1.6660 C.3      26        0    0.0000
    158 C         158.7492   71.0925    0.8039 C.3      26        0    0.0000
    159 H         160.3623   70.0592    1.8217 H        26        0    0.0000
    160 H         159.1401   68.9867    1.1478 H        26        0    0.0000
    161 H         157.6583   71.1592    0.8991 H        26        0    0.0000
    162 H         159.1553   72.0481    1.1581 H        26        0    0.0000
    163 C         159.1146   70.9184   -0.7105 C.3      27        0    0.0000
    164 C         157.9542   71.3010   -1.6358 C.3      27        0    0.0000
    165 H         159.9939   71.5348   -0.9352 H        27        0    0.0000
    166 H         159.4076   69.8759   -0.8860 H        27        0    0.0000
    167 H         157.0055   70.9431   -1.2170 H        27        0    0.0000
    168 H         157.8748   72.3928   -1.7078 H        27        0    0.0000
    169 C         158.1246   70.7105   -3.0779 C.3      28        0    0.0000
    170 C         158.3018   71.8047   -4.1364 C.3      28        0    0.0000
    171 H         158.9908   70.0373   -3.0842 H        28        0    0.0000
    172 H         157.2467   70.0967   -3.3146 H        28        0    0.0000
    173 H         157.3219   72.1778   -4.4594 H        28        0    0.0000
    174 H         158.8386   72.6598   -3.7073 H        28        0    0.0000
    175 C         159.0873   71.2939   -5.3932 C.3      29        0    0.0000
    176 C         158.2805   71.4529   -6.6866 C.3      29        0    0.0000
    177 H         160.0318   71.8468   -5.4686 H        29        0    0.0000
    178 H         159.3506   70.2398   -5.2412 H        29        0    0.0000
    179 H         157.2270   71.2061   -6.5056 H        29        0    0.0000
    180 H         158.3065   72.4977   -7.0201 H        29        0    0.0000
    181 C         158.8222   70.5406   -7.8406 C.3      30        0    0.0000
    182 C         158.4966   71.1044   -9.2281 C.3      30        0    0.0000
    183 H         159.9075   70.4304   -7.7245 H        30        0    0.0000
    184 H         158.3902   69.5381   -7.7311 H        30        0    0.0000
    185 H         157.4122   71.0937   -9.3935 H        30        0    0.0000
    186 H         158.8148   72.1523   -9.2925 H        30        0    0.0000
    187 C         159.1909   70.2940  -10.3765 C.3      31        0    0.0000
    188 C         158.7802   70.7896  -11.7674 C.3      31        0    0.0000
    189 H         160.2786   70.3709  -10.2558 H        31        0    0.0000
    190 H         158.9358   69.2329  -10.2647 H        31        0    0.0000
    191 H         157.6902   70.7352  -11.8795 H        31        0    0.0000
    192 H         159.0569   71.8444  -11.8879 H        31        0    0.0000
    193 C         159.4484   69.9577  -12.9158 C.3      32        0    0.0000
    194 C         159.0474   70.4611  -14.3068 C.3      32        0    0.0000
    195 H         160.5381   70.0047  -12.7985 H        32        0    0.0000
    196 H         159.1643   68.9043  -12.8007 H        32        0    0.0000
    197 H         157.9578   70.4121  -14.4248 H        32        0    0.0000
    198 H         159.3296   71.5150  -14.4212 H        32        0    0.0000
    199 C         159.7179   69.6310  -15.4552 C.3      33        0    0.0000
    200 C         159.3143   70.1324  -16.8461 C.3      33        0    0.0000
    201 H         160.8075   69.6818  -15.3384 H        33        0    0.0000
    202 H         159.4375   68.5767  -15.3394 H        33        0    0.0000
    203 H         158.2245   70.0839  -16.9619 H        33        0    0.0000
    204 H         159.5969   71.1860  -16.9627 H        33        0    0.0000
    205 C         159.9821   69.3001  -17.9945 C.3      34        0    0.0000
    206 C         159.5791   69.8020  -19.3855 C.3      34        0    0.0000
    207 H         161.0719   69.3482  -17.8784 H        34        0    0.0000
    208 H         159.6991   68.2465  -17.8782 H        34        0    0.0000
    209 H         158.4894   69.7518  -19.5024 H        34        0    0.0000
    210 H         159.8601   70.8561  -19.5010 H        34        0    0.0000
    211 C         160.2493   68.9716  -20.5339 C.3      35        0    0.0000
    212 C         159.8423   69.4702  -21.9248 C.3      35        0    0.0000
    213 H         161.3390   69.0249  -20.4191 H        35        0    0.0000
    214 H         159.9714   67.9169  -20.4161 H        35        0    0.0000
    215 H         158.7530   69.4121  -22.0414 H        35        0    0.0000
    216 H         160.1156   70.5263  -22.0407 H        35        0    0.0000
    217 C         160.5181   68.6443  -23.0732 C.3      36        0    0.0000
    218 C         160.1118   69.1436  -24.4642 C.3      36        0    0.0000
    219 H         161.6073   68.7018  -22.9562 H        36        0    0.0000
    220 H         160.2440   67.5884  -22.9578 H        36        0    0.0000
    221 H         159.0223   69.0889  -24.5801 H        36        0    0.0000
    222 H         160.3884   70.1989  -24.5807 H        36        0    0.0000
    223 C         160.7845   68.3152  -25.6126 C.3      37        0    0.0000
    224 C         160.3799   68.8158  -27.0035 C.3      37        0    0.0000
    225 H         161.8740   68.3688  -25.4957 H        37        0    0.0000
    226 H         160.5067   67.2602  -25.4969 H        37        0    0.0000
    227 H         159.2895   68.7727  -27.1163 H        37        0    0.0000
    228 H         160.6677   69.8676  -27.1232 H        37        0    0.0000
    229 C         161.0401   67.9775  -28.1519 C.3      38        0    0.0000
    230 C         160.6364   68.4787  -29.5429 C.3      38        0    0.0000
    231 H         162.1305   68.0199  -28.0386 H        38        0    0.0000
    232 H         160.7517   66.9258  -28.0327 H        38        0    0.0000
    233 H         161.2406   67.9817  -30.3119 H        38        0    0.0000
    234 H         159.5903   68.2188  -29.7474 H        38        0    0.0000
    235 C         160.8094   70.0299  -29.6887 C.3      39        0    0.0000
    236 C         160.4082   70.5308  -31.0805 C.3      39        0    0.0000
    237 H         160.2036   70.5270  -28.9209 H        39        0    0.0000
    238 H         161.8550   70.2900  -29.4822 H        39        0    0.0000
    239 H         159.3182   70.4873  -31.1962 H        39        0    0.0000
    240 H         160.6959   71.5828  -31.1991 H        39        0    0.0000
    241 C         161.0719   69.6933  -32.2275 C.3      40        0    0.0000
    242 C         160.3178   69.8266  -33.5551 C.3      40        0    0.0000
    243 H         162.1110   70.0230  -32.3503 H        40        0    0.0000
    244 H         161.1096   68.6407  -31.9204 H        40        0    0.0000
    245 H         159.2442   69.6672  -33.3956 H        40        0    0.0000
    246 H         160.4299   70.8437  -33.9508 H        40        0    0.0000
    247 C         160.8256   68.8067  -34.6319 C.3      41        0    0.0000
    248 C         160.2216   69.0734  -36.0150 C.3      41        0    0.0000
    249 H         161.9202   68.8616  -34.6824 H        41        0    0.0000
    250 H         160.5761   67.7907  -34.3019 H        41        0    0.0000
    251 H         159.3556   68.4202  -36.1795 H        41        0    0.0000
    252 H         159.8533   70.1052  -36.0720 H        41        0    0.0000
    253 C         161.2560   68.8416  -37.1698 C.3      42        0    0.0000
    254 C         160.6485   69.0962  -38.5536 C.3      42        0    0.0000
    255 H         162.1179   69.5013  -37.0102 H        42        0    0.0000
    256 H         161.6311   67.8125  -37.1072 H        42        0    0.0000
    257 H         160.4841   70.1709  -38.7004 H        42        0    0.0000
    258 H         161.3469   68.7746  -39.3361 H        42        0    0.0000
    259 C         159.2868   68.3451  -38.7520 C.3      43        0    0.0000
    260 C         158.5730   68.7673  -40.0409 C.3      43        0    0.0000
    261 H         159.4773   67.2648  -38.7641 H        43        0    0.0000
    262 H         158.6447   68.5421  -37.8845 H        43        0    0.0000
    263 H         158.1934   67.8830  -40.5676 H        43        0    0.0000
    264 H         157.7017   69.3897  -39.8017 H        43        0    0.0000
    265 C         159.5143   69.5658  -41.0072 C.3      44        0    0.0000
    266 C         158.7713   70.0881  -42.2418 C.3      44        0    0.0000
    267 H         159.9606   70.4021  -40.4550 H        44        0    0.0000
    268 H         160.3415   68.9137  -41.3139 H        44        0    0.0000
    269 H         159.4797   70.5530  -42.9385 H        44        0    0.0000
    270 H         158.3021   69.2546  -42.7790 H        44        0    0.0000
    271 C         157.6660   71.1361  -41.8707 C.3      45        0    0.0000
    272 C         157.7333   72.3880  -42.7523 C.3      45        0    0.0000
    273 H         156.6818   70.6609  -41.9665 H        45        0    0.0000
    274 H         157.7809   71.4126  -40.8153 H        45        0    0.0000
    275 H         158.7175   72.8631  -42.6565 H        45        0    0.0000
    276 H         157.6183   72.1115  -43.8077 H        45        0    0.0000
    277 H         156.9648   73.1166  -42.4944 H        45        0    0.0000
    278 H         149.2798   53.1887  -40.4349 H         0        0    0.0000
@<TRIPOS>BOND
     1     1     2      1
     2     1     3      1
     3     1     4      1
     4     1   278      H
     5     2     5      1
     6     2     6      1
     7     2     7      1
     8     7     8      1
     9     7     9      1
    10     7    10      1
    11     8    11      1
    12     8    12      1
    13     8    13      1
    14    13    14      1
    15    13    15      1
    16    13    16      1
    17    14    17      1
    18    14    18      1
    19    14    19      1
    20    19    20      1
    21    19    21      1
    22    19    22      1
    23    20    23      1
    24    20    24      1
    25    20    25      1
    26    25    26      1
    27    25    27      1
    28    25    28      1
    29    26    29      1
    30    26    30      1
    31    26    31      1
    32    31    32      1
    33    31    33      1
    34    31    34      1
    35    32    35      1
    36    32    36      1
    37    32    37      1
    38    37    38      1
    39    37    39      1
    40    37    40      1
    41    38    41      1
    42    38    42      1
    43    38    43      1
    44    43    44      1
    45    43    45      1
    46    43    46      1
    47    44    47      1
    48    44    48      1
    49    44    49      1
    50    49    50      1
    51    49    51      1
    52    49    52      1
    53    50    53      1
    54    50    54      1
    55    50    55      1
    56    55    56      1
    57    55    57      1
    58    55    58      1
    59    56    59      1
    60    56    60      1
    61    56    61      1
    62    61    62      1
    63    61    63      1
    64    61    64      1
    65    62    65      1
    66    62    66      1
    67    62    67      1
    68    67    68      1
    69    67    69      1
    70    67    70      1
    71    68    71      1
    72    68    72      1
    73    68    73      1
    74    73    74      1
    75    73    75      1
    76    73    76      1
    77    74    77      1
    78    74    78      1
    79    74    79      1
    80    79    80      1
    81    79    81      1
    82    79    82      1
    83    80    83      1
    84    80    84      1
    85    80    85      1
    86    85    86      1
    87    85    87      1
    88    85    88      1
    89    86    89      1
    90    86    90      1
    91    86    91      1
    92    91    92      1
    93    91    93      1
    94    91    94      1
    95    92    95      1
    96    92    96      1
    97    92    97      1
    98    97    98      1
    99    97    99      1
   100    97   100      1
   101    98   101      1
   102    98   102      1
   103    98   103      1
   104   103   104      1
   105   103   105      1
   106   103   106      1
   107   104   107      1
   108   104   108      1
   109   104   109      1
   110   109   110      1
   111   109   111      1
   112   109   112      1
   113   110   113      1
   114   110   114      1
   115   110   115      1
   116   115   116      1
   117   115   117      1
   118   115   118      1
   119   116   119      1
   120   116   120      1
   121   116   121      1
   122   121   122      1
   123   121   123      1
   124   121   124      1
   125   122   125      1
   126   122   126      1
   127   122   127      1
   128   127   128      1
   129   127   129      1
   130   127   130      1
   131   128   131      1
   132   128   132      1
   133   128   133      1
   134   133   134      1
   135   133   135      1
   136   133   136      1
   137   134   137      1
   138   134   138      1
   139   134   139      1
   140   139   140      1
   141   139   141      1
   142   139   142      1
   143   140   143      1
   144   140   144      1
   145   140   145      1
   146   145   146      1
   147   145   147      1
   148   145   148      1
   149   146   149      1
   150   146   150      1
   151   146   151      1
   152   151   152      1
   153   151   153      1
   154   151   154      1
   155   152   155      1
   156   152   156      1
   157   152   157      1
   158   157   158      1
   159   157   159      1
   160   157   160      1
   161   158   161      1
   162   158   162      1
   163   158   163      1
   164   163   164      1
   165   163   165      1
   166   163   166      1
   167   164   167      1
   168   164   168      1
   169   164   169      1
   170   169   170      1
   171   169   171      1
   172   169   172      1
   173   170   173      1
   174   170   174      1
   175   170   175      1
   176   175   176      1
   177   175   177      1
   178   175   178      1
   179   176   179      1
   180   176   180      1
   181   176   181      1
   182   181   182      1
   183   181   183      1
   184   181   184      1
   185   182   185      1
   186   182   186      1
   187   182   187      1
   188   187   188      1
   189   187   189      1
   190   187   190      1
   191   188   191      1
   192   188   192      1
   193   188   193      1
   194   193   194      1
   195   193   195      1
   196   193   196      1
   197   194   197      1
   198   194   198      1
   199   194   199      1
   200   199   200      1
   201   199   201      1
   202   199   202      1
   203   200   203      1
   204   200   204      1
   205   200   205      1
   206   205   206      1
   207   205   207      1
   208   205   208      1
   209   206   209      1
   210   206   210      1
   211   206   211      1
   212   211   212      1
   213   211   213      1
   214   211   214      1
   215   212   215      1
   216   212   216      1
   217   212   217      1
   218   217   218      1
   219   217   219      1
   220   217   220      1
   221   218   221      1
   222   218   222      1
   223   218   223      1
   224   223   224      1
   225   223   225      1
   226   223   226      1
   227   224   227      1
   228   224   228      1
   229   224   229      1
   230   229   230      1
   231   229   231      1
   232   229   232      1
   233   230   233      1
   234   230   234      1
   235   230   235      1
   236   235   236      1
   237   235   237      1
   238   235   238      1
   239   236   239      1
   240   236   240      1
   241   236   241      1
   242   241   242      1
   243   241   243      1
   244   241   244      1
   245   242   245      1
   246   242   246      1
   247   242   247      1
   248   247   248      1
   249   247   249      1
   250   247   250      1
   251   248   251      1
   252   248   252      1
   253   248   253      1
   254   253   254      1
   255   253   255      1
   256   253   256      1
   257   254   257      1
   258   254   258      1
   259   254   259      1
   260   259   260      1
   261   259   261      1
   262   259   262      1
   263   260   263      1
   264   260   264      1
   265   260   265      1
   266   265   266      1
   267   265   267      1
   268   265   268      1
   269   266   269      1
   270   266   270      1
   271   266   271      1
   272   271   272      1
   273   271   273      1
   274   271   274      1
   275   272   275      1
   276   272   276      1
   277   272   277      H
