###
### Created by PolyChef-cpp17 on Thu Feb 27 19:40:28 2025
###

@<TRIPOS>MOLECULE
NO_INFO
290 289 1 0 0
SMALL
USER_CHARGES


@<TRIPOS>ATOM
      1 C         179.2798  139.7887  -39.3449 C.3       0        0    0.0000
      2 C         177.8706  139.6282  -38.7641 C.3       0        0    0.0000
      3 H         179.9271  138.9766  -38.9914 H         0        0    0.0000
      4 H         179.7280  140.7255  -38.9913 H         0        0    0.0000
      5 H         177.3717  140.6039  -38.7123 H         0        0    0.0000
      6 H         177.2615  138.9975  -39.4235 H         0        0    0.0000
      7 C         177.8874  138.9926  -37.3312 C.3       1        0    0.0000
      8 C         179.1635  139.3400  -36.5567 C.3       1        0    0.0000
      9 H         177.0057  139.3413  -36.7793 H         1        0    0.0000
     10 H         177.7896  137.9040  -37.4260 H         1        0    0.0000
     11 H         180.0444  139.1742  -37.1892 H         1        0    0.0000
     12 H         179.1634  140.4040  -36.2894 H         1        0    0.0000
     13 C         179.3141  138.4903  -35.2479 C.3       2        0    0.0000
     14 C         180.1996  139.1815  -34.2053 C.3       2        0    0.0000
     15 H         178.3168  138.3042  -34.8305 H         2        0    0.0000
     16 H         179.7343  137.5110  -35.5085 H         2        0    0.0000
     17 H         181.2566  139.0740  -34.4787 H         2        0    0.0000
     18 H         179.9872  140.2576  -34.1854 H         2        0    0.0000
     19 C         179.9883  138.5980  -32.7657 C.3       3        0    0.0000
     20 C         180.5990  139.4923  -31.6811 C.3       3        0    0.0000
     21 H         178.9127  138.4736  -32.5890 H         3        0    0.0000
     22 H         180.4328  137.5961  -32.7214 H         3        0    0.0000
     23 H         181.6883  139.5401  -31.8024 H         3        0    0.0000
     24 H         180.2251  140.5184  -31.7850 H         3        0    0.0000
     25 C         180.2736  138.9798  -30.2358 C.3       4        0    0.0000
     26 C         180.8658  139.8862  -29.1510 C.3       4        0    0.0000
     27 H         179.1845  138.9166  -30.1199 H         4        0    0.0000
     28 H         180.6617  137.9595  -30.1266 H         4        0    0.0000
     29 H         181.9556  139.9444  -29.2630 H         4        0    0.0000
     30 H         180.4826  140.9080  -29.2641 H         4        0    0.0000
     31 C         180.5328  139.3787  -27.7057 C.3       5        0    0.0000
     32 C         181.1313  140.2811  -26.6209 C.3       5        0    0.0000
     33 H         179.4430  139.3258  -27.5918 H         5        0    0.0000
     34 H         180.9113  138.3550  -27.5944 H         5        0    0.0000
     35 H         182.2209  140.3357  -26.7361 H         5        0    0.0000
     36 H         180.7512  141.3043  -26.7309 H         5        0    0.0000
     37 C         180.8008  139.7719  -25.1756 C.3       6        0    0.0000
     38 C         181.3681  140.6943  -24.0910 C.3       6        0    0.0000
     39 H         179.7119  139.6916  -25.0694 H         6        0    0.0000
     40 H         181.2045  138.7587  -25.0567 H         6        0    0.0000
     41 H         182.4577  140.7698  -24.1935 H         6        0    0.0000
     42 H         180.9691  141.7088  -24.2135 H         6        0    0.0000
     43 C         181.0304  140.1896  -22.6457 C.3       7        0    0.0000
     44 C         182.0339  140.6967  -21.6041 C.3       7        0    0.0000
     45 H         180.0173  140.5193  -22.3837 H         7        0    0.0000
     46 H         181.0137  139.0927  -22.6491 H         7        0    0.0000
     47 H         183.0558  140.4420  -21.9112 H         7        0    0.0000
     48 H         181.9879  141.7909  -21.5391 H         7        0    0.0000
     49 C         181.7688  140.0945  -20.1813 C.3       8        0    0.0000
     50 C         181.6746  141.1772  -19.1006 C.3       8        0    0.0000
     51 H         180.8401  139.5113  -20.2115 H         8        0    0.0000
     52 H         182.5749  139.3907  -19.9394 H         8        0    0.0000
     53 H         182.6787  141.5240  -18.8270 H         8        0    0.0000
     54 H         181.1346  142.0499  -19.4885 H         8        0    0.0000
     55 C         180.9473  140.6660  -17.8093 C.3       9        0    0.0000
     56 C         181.8271  140.7882  -16.5603 C.3       9        0    0.0000
     57 H         180.0214  141.2388  -17.6748 H         9        0    0.0000
     58 H         180.6518  139.6204  -17.9605 H         9        0    0.0000
     59 H         182.8622  140.5160  -16.8012 H         9        0    0.0000
     60 H         181.8474  141.8292  -16.2148 H         9        0    0.0000
     61 C         181.3246  139.8765  -15.3882 C.3      10        0    0.0000
     62 C         181.5727  140.5079  -14.0139 C.3      10        0    0.0000
     63 H         180.2536  139.6826  -15.5253 H        10        0    0.0000
     64 H         181.8314  138.9057  -15.4531 H        10        0    0.0000
     65 H         182.6498  140.5562  -13.8109 H        10        0    0.0000
     66 H         181.2034  141.5409  -14.0023 H        10        0    0.0000
     67 C         180.8762  139.7093  -12.8586 C.3      11        0    0.0000
     68 C         181.2873  140.2165  -11.4720 C.3      11        0    0.0000
     69 H         179.7887  139.7873  -12.9806 H        11        0    0.0000
     70 H         181.1292  138.6467  -12.9608 H        11        0    0.0000
     71 H         182.3786  140.1799  -11.3664 H        11        0    0.0000
     72 H         180.9943  141.2670  -11.3536 H        11        0    0.0000
     73 C         180.6395  139.3780  -10.3166 C.3      12        0    0.0000
     74 C         181.0380  139.8949   -8.9299 C.3      12        0    0.0000
     75 H         179.5485  139.4051  -10.4289 H        12        0    0.0000
     76 H         180.9417  138.3293  -10.4284 H        12        0    0.0000
     77 H         182.1288  139.8645   -8.8163 H        12        0    0.0000
     78 H         180.7389  140.9446   -8.8195 H        12        0    0.0000
     79 C         180.3862  139.0595   -7.7746 C.3      13        0    0.0000
     80 C         180.7914  139.5712   -6.3879 C.3      13        0    0.0000
     81 H         179.2953  139.0949   -7.8847 H        13        0    0.0000
     82 H         180.6805  138.0088   -7.8885 H        13        0    0.0000
     83 H         181.8824  139.5362   -6.2779 H        13        0    0.0000
     84 H         180.4969  140.6219   -6.2738 H        13        0    0.0000
     85 C         180.1400  138.7355   -5.2325 C.3      14        0    0.0000
     86 C         180.5556  139.2390   -3.8459 C.3      14        0    0.0000
     87 H         179.0488  138.7785   -5.3369 H        14        0    0.0000
     88 H         180.4268  137.6834   -5.3522 H        14        0    0.0000
     89 H         181.6474  139.2046   -3.7448 H        14        0    0.0000
     90 H         180.2608  140.2886   -3.7229 H        14        0    0.0000
     91 C         179.9143  138.3954   -2.6907 C.3      15        0    0.0000
     92 C         180.3061  138.9172   -1.3039 C.3      15        0    0.0000
     93 H         178.8233  138.4120   -2.8044 H        15        0    0.0000
     94 H         180.2267  137.3496   -2.8012 H        15        0    0.0000
     95 H         181.3946  138.8661   -1.1765 H        15        0    0.0000
     96 H         180.0268  139.9736   -1.2067 H        15        0    0.0000
     97 C         179.6236  138.1058   -0.1492 C.3      16        0    0.0000
     98 C         179.9900  138.6479    1.2368 C.3      16        0    0.0000
     99 H         178.5361  138.1371   -0.2900 H        16        0    0.0000
    100 H         179.9219  137.0533   -0.2324 H        16        0    0.0000
    101 H         179.3887  138.1488    2.0069 H        16        0    0.0000
    102 H         181.0399  138.4241    1.4628 H        16        0    0.0000
    103 C         179.7682  140.1958    1.3470 C.3      17        0    0.0000
    104 C         180.1985  140.7487    2.7101 C.3      17        0    0.0000
    105 H         180.3301  140.6914    0.5456 H        17        0    0.0000
    106 H         178.7078  140.4146    1.1700 H        17        0    0.0000
    107 H         181.0308  141.4524    2.5849 H        17        0    0.0000
    108 H         179.3746  141.3129    3.1644 H        17        0    0.0000
    109 C         180.6400  139.6149    3.6986 C.3      18        0    0.0000
    110 C         181.0770  140.1683    5.0594 C.3      18        0    0.0000
    111 H         179.8060  138.9139    3.8278 H        18        0    0.0000
    112 H         181.4605  139.0475    3.2422 H        18        0    0.0000
    113 H         180.2061  140.5463    5.6090 H        18        0    0.0000
    114 H         181.5110  139.3665    5.6697 H        18        0    0.0000
    115 C         182.1277  141.3234    4.9213 C.3      19        0    0.0000
    116 C         182.4151  142.0104    6.2609 C.3      19        0    0.0000
    117 H         183.0545  140.9104    4.5040 H        19        0    0.0000
    118 H         181.7544  142.0561    4.1952 H        19        0    0.0000
    119 H         183.4964  142.1412    6.3923 H        19        0    0.0000
    120 H         181.9727  143.0143    6.2713 H        19        0    0.0000
    121 C         181.8529  141.1979    7.4780 C.3      20        0    0.0000
    122 C         182.0297  141.9432    8.8054 C.3      20        0    0.0000
    123 H         180.7903  140.9884    7.3027 H        20        0    0.0000
    124 H         182.3624  140.2272    7.5208 H        20        0    0.0000
    125 H         181.0513  142.2383    9.2043 H        20        0    0.0000
    126 H         182.4870  141.2808    9.5508 H        20        0    0.0000
    127 C         182.9206  143.2241    8.6535 C.3      21        0    0.0000
    128 C         182.9586  144.0608    9.9370 C.3      21        0    0.0000
    129 H         183.9362  142.9173    8.3742 H        21        0    0.0000
    130 H         182.5341  143.8272    7.8226 H        21        0    0.0000
    131 H         181.9417  144.3563   10.2237 H        21        0    0.0000
    132 H         183.3578  143.4617   10.7649 H        21        0    0.0000
    133 C         183.8342  145.3515    9.7792 C.3      22        0    0.0000
    134 C         183.8147  146.2243   11.0389 C.3      22        0    0.0000
    135 H         184.8635  145.0539    9.5437 H        22        0    0.0000
    136 H         183.4673  145.9246    8.9187 H        22        0    0.0000
    137 H         182.7828  146.4999   11.2896 H        22        0    0.0000
    138 H         184.2066  145.6596   11.8939 H        22        0    0.0000
    139 C         184.6599  147.5334   10.8678 C.3      23        0    0.0000
    140 C         183.9010  148.7801   11.3356 C.3      23        0    0.0000
    141 H         185.5941  147.4275   11.4331 H        23        0    0.0000
    142 H         184.9405  147.6378    9.8123 H        23        0    0.0000
    143 H         182.8483  148.7150   11.0337 H        23        0    0.0000
    144 H         183.9117  148.8380   12.4310 H        23        0    0.0000
    145 C         184.5126  150.1011   10.7538 C.3      24        0    0.0000
    146 C         185.1042  150.9979   11.8469 C.3      24        0    0.0000
    147 H         185.2868  149.8399   10.0217 H        24        0    0.0000
    148 H         183.7307  150.6416   10.2061 H        24        0    0.0000
    149 H         184.3774  151.7668   12.1368 H        24        0    0.0000
    150 H         185.3128  150.4062   12.7469 H        24        0    0.0000
    151 C         186.4275  151.7012   11.3867 C.3      25        0    0.0000
    152 C         186.1772  153.1140   10.8477 C.3      25        0    0.0000
    153 H         187.1211  151.7400   12.2358 H        25        0    0.0000
    154 H         186.9066  151.0841   10.6165 H        25        0    0.0000
    155 H         185.1262  153.2234   10.5529 H        25        0    0.0000
    156 H         186.3624  153.8553   11.6349 H        25        0    0.0000
    157 C         187.0853  153.4489    9.6145 C.3      26        0    0.0000
    158 C         186.3272  154.2175    8.5265 C.3      26        0    0.0000
    159 H         187.9465  154.0350    9.9584 H        26        0    0.0000
    160 H         187.4847  152.5128    9.2049 H        26        0    0.0000
    161 H         185.3049  153.8300    8.4352 H        26        0    0.0000
    162 H         186.2397  155.2750    8.8047 H        26        0    0.0000
    163 C         187.0315  154.1191    7.1294 C.3      27        0    0.0000
    164 C         187.1010  155.4745    6.4173 C.3      27        0    0.0000
    165 H         188.0420  153.7160    7.2704 H        27        0    0.0000
    166 H         186.4875  153.3958    6.5094 H        27        0    0.0000
    167 H         186.0997  155.7777    6.0870 H        27        0    0.0000
    168 H         187.4507  156.2474    7.1129 H        27        0    0.0000
    169 C         188.0555  155.4443    5.1742 C.3      28        0    0.0000
    170 C         187.5411  156.3189    4.0255 C.3      28        0    0.0000
    171 H         189.0524  155.7802    5.4855 H        28        0    0.0000
    172 H         188.1641  154.4060    4.8369 H        28        0    0.0000
    173 H         186.4818  156.1060    3.8359 H        28        0    0.0000
    174 H         187.6050  157.3786    4.3019 H        28        0    0.0000
    175 C         188.3470  156.0930    2.6999 C.3      29        0    0.0000
    176 C         187.9635  157.0984    1.6086 C.3      29        0    0.0000
    177 H         189.4190  156.1680    2.9207 H        29        0    0.0000
    178 H         188.1687  155.0694    2.3478 H        29        0    0.0000
    179 H         186.8928  157.0188    1.3831 H        29        0    0.0000
    180 H         188.1355  158.1223    1.9631 H        29        0    0.0000
    181 C         188.7761  156.8784    0.2861 C.3      30        0    0.0000
    182 C         187.9988  157.3302   -0.9552 C.3      30        0    0.0000
    183 H         189.7231  157.4276    0.3575 H        30        0    0.0000
    184 H         189.0339  155.8154    0.2022 H        30        0    0.0000
    185 H         186.9858  156.9095   -0.9384 H        30        0    0.0000
    186 H         187.8868  158.4215   -0.9523 H        30        0    0.0000
    187 C         188.7034  156.8982   -2.2872 C.3      31        0    0.0000
    188 C         187.7947  157.0749   -3.5087 C.3      31        0    0.0000
    189 H         189.6191  157.4896   -2.4108 H        31        0    0.0000
    190 H         189.0149  155.8500   -2.1986 H        31        0    0.0000
    191 H         186.8627  156.5134   -3.3686 H        31        0    0.0000
    192 H         187.5136  158.1295   -3.6190 H        31        0    0.0000
    193 C         188.4803  156.5934   -4.8338 C.3      32        0    0.0000
    194 C         187.8422  157.2197   -6.0786 C.3      32        0    0.0000
    195 H         189.5474  156.8446   -4.7913 H        32        0    0.0000
    196 H         188.4160  155.4996   -4.8879 H        32        0    0.0000
    197 H         186.7962  156.9005   -6.1662 H        32        0    0.0000
    198 H         187.8313  158.3128   -5.9863 H        32        0    0.0000
    199 C         188.6008  156.8313   -7.3943 C.3      33        0    0.0000
    200 C         187.7698  157.1173   -8.6500 C.3      33        0    0.0000
    201 H         189.5462  157.3864   -7.4344 H        33        0    0.0000
    202 H         188.8622  155.7667   -7.3507 H        33        0    0.0000
    203 H         186.8009  156.6070   -8.5842 H        33        0    0.0000
    204 H         187.5561  158.1908   -8.7232 H        33        0    0.0000
    205 C         188.4958  156.6561   -9.9606 C.3      34        0    0.0000
    206 C         187.8094  157.1890  -11.2231 C.3      34        0    0.0000
    207 H         189.5379  156.9974   -9.9265 H        34        0    0.0000
    208 H         188.5240  155.5596   -9.9821 H        34        0    0.0000
    209 H         186.7805  156.8125  -11.2793 H        34        0    0.0000
    210 H         187.7426  158.2832  -11.1816 H        34        0    0.0000
    211 C         188.5698  156.7784  -12.5311 C.3      35        0    0.0000
    212 C         187.7784  157.1266  -13.7966 C.3      35        0    0.0000
    213 H         189.5443  157.2820  -12.5464 H        35        0    0.0000
    214 H         188.7724  155.7007  -12.4988 H        35        0    0.0000
    215 H         186.7923  156.6467  -13.7676 H        35        0    0.0000
    216 H         187.6010  158.2083  -13.8437 H        35        0    0.0000
    217 C         188.5201  156.6789  -15.1031 C.3      36        0    0.0000
    218 C         187.8045  157.1587  -16.3707 C.3      36        0    0.0000
    219 H         189.5451  157.0692  -15.0792 H        36        0    0.0000
    220 H         188.5996  155.5847  -15.1073 H        36        0    0.0000
    221 H         186.7866  156.7510  -16.4052 H        36        0    0.0000
    222 H         187.7060  158.2512  -16.3564 H        36        0    0.0000
    223 C         188.5623  156.7368  -17.6765 C.3      37        0    0.0000
    224 C         187.8003  157.1358  -18.9450 C.3      37        0    0.0000
    225 H         189.5567  157.2001  -17.6736 H        37        0    0.0000
    226 H         188.7204  155.6513  -17.6585 H        37        0    0.0000
    227 H         186.8004  156.6843  -18.9409 H        37        0    0.0000
    228 H         187.6549  158.2229  -18.9702 H        37        0    0.0000
    229 C         188.5481  156.6956  -20.2506 C.3      38        0    0.0000
    230 C         187.8182  157.1501  -21.5193 C.3      38        0    0.0000
    231 H         189.5641  157.1091  -20.2326 H        38        0    0.0000
    232 H         188.6523  155.6036  -20.2472 H        38        0    0.0000
    233 H         186.8057  156.7282  -21.5423 H        38        0    0.0000
    234 H         187.7048  158.2413  -21.5177 H        38        0    0.0000
    235 C         188.5735  156.7224  -22.8247 C.3      39        0    0.0000
    236 C         187.8139  157.1248  -24.0936 C.3      39        0    0.0000
    237 H         189.5706  157.1798  -22.8222 H        39        0    0.0000
    238 H         188.7252  155.6360  -22.8057 H        39        0    0.0000
    239 H         186.8134  156.6748  -24.0917 H        39        0    0.0000
    240 H         187.6702  158.2122  -24.1171 H        39        0    0.0000
    241 C         188.5629  156.6857  -25.3988 C.3      40        0    0.0000
    242 C         187.8354  157.1433  -26.6679 C.3      40        0    0.0000
    243 H         189.5795  157.0977  -25.3788 H        40        0    0.0000
    244 H         188.6655  155.5935  -25.3972 H        40        0    0.0000
    245 H         186.8216  156.7247  -26.6919 H        40        0    0.0000
    246 H         187.7256  158.2349  -26.6656 H        40        0    0.0000
    247 C         188.5903  156.7141  -27.9730 C.3      41        0    0.0000
    248 C         187.8360  157.1251  -29.2422 C.3      41        0    0.0000
    249 H         189.5906  157.1647  -27.9673 H        41        0    0.0000
    250 H         188.7346  155.6266  -27.9566 H        41        0    0.0000
    251 H         186.8325  156.6817  -29.2436 H        41        0    0.0000
    252 H         187.6995  158.2135  -29.2629 H        41        0    0.0000
    253 C         188.5847  156.6848  -30.5472 C.3      42        0    0.0000
    254 C         187.8545  157.1373  -31.8165 C.3      42        0    0.0000
    255 H         189.6002  157.0997  -30.5293 H        42        0    0.0000
    256 H         188.6904  155.5929  -30.5430 H        42        0    0.0000
    257 H         186.8414  156.7169  -31.8378 H        42        0    0.0000
    258 H         187.7429  158.2286  -31.8175 H        42        0    0.0000
    259 C         188.6083  156.7053  -33.1214 C.3      43        0    0.0000
    260 C         187.8538  157.1156  -34.3909 C.3      43        0    0.0000
    261 H         189.6091  157.1545  -33.1169 H        43        0    0.0000
    262 H         188.7511  155.6177  -33.1037 H        43        0    0.0000
    263 H         186.8513  156.6700  -34.3933 H        43        0    0.0000
    264 H         187.7149  158.2037  -34.4108 H        43        0    0.0000
    265 C         188.6044  156.6781  -35.6957 C.3      44        0    0.0000
    266 C         187.8625  157.1102  -36.9653 C.3      44        0    0.0000
    267 H         189.6133  157.1089  -35.6846 H        44        0    0.0000
    268 H         188.7273  155.5880  -35.6844 H        44        0    0.0000
    269 H         186.8550  156.6761  -36.9783 H        44        0    0.0000
    270 H         187.7361  158.1999  -36.9747 H        44        0    0.0000
    271 C         188.6160  156.6777  -38.2701 C.3      45        0    0.0000
    272 C         188.7011  157.8137  -39.2954 C.3      45        0    0.0000
    273 H         189.6237  156.3381  -38.0004 H        45        0    0.0000
    274 H         188.0991  155.8144  -38.7072 H        45        0    0.0000
    275 H         187.7157  157.9899  -39.7442 H        45        0    0.0000
    276 H         188.9927  158.7475  -38.7988 H        45        0    0.0000
    277 C         189.7292  157.5067  -40.4383 C.3      46        0    0.0000
    278 C         189.0742  157.5057  -41.8239 C.3      46        0    0.0000
    279 H         190.5317  158.2539  -40.4021 H        46        0    0.0000
    280 H         190.1958  156.5334  -40.2421 H        46        0    0.0000
    281 H         188.1383  158.0775  -41.7980 H        46        0    0.0000
    282 H         189.7284  158.0049  -42.5496 H        46        0    0.0000
    283 C         188.7667  156.0559  -42.3347 C.3      47        0    0.0000
    284 C         187.3308  155.9146  -42.8517 C.3      47        0    0.0000
    285 H         189.4793  155.8023  -43.1293 H        47        0    0.0000
    286 H         188.9430  155.3476  -41.5156 H        47        0    0.0000
    287 H         186.6182  156.1681  -42.0570 H        47        0    0.0000
    288 H         187.1545  156.6228  -43.6707 H        47        0    0.0000
    289 H         187.1169  154.9065  -43.2068 H        47        0    0.0000
    290 H         179.2798  139.7887  -40.4349 H         0        0    0.0000
@<TRIPOS>BOND
     1     1     2      1
     2     1     3      1
     3     1     4      1
     4     1   290      H
     5     2     5      1
     6     2     6      1
     7     2     7      1
     8     7     8      1
     9     7     9      1
    10     7    10      1
    11     8    11      1
    12     8    12      1
    13     8    13      1
    14    13    14      1
    15    13    15      1
    16    13    16      1
    17    14    17      1
    18    14    18      1
    19    14    19      1
    20    19    20      1
    21    19    21      1
    22    19    22      1
    23    20    23      1
    24    20    24      1
    25    20    25      1
    26    25    26      1
    27    25    27      1
    28    25    28      1
    29    26    29      1
    30    26    30      1
    31    26    31      1
    32    31    32      1
    33    31    33      1
    34    31    34      1
    35    32    35      1
    36    32    36      1
    37    32    37      1
    38    37    38      1
    39    37    39      1
    40    37    40      1
    41    38    41      1
    42    38    42      1
    43    38    43      1
    44    43    44      1
    45    43    45      1
    46    43    46      1
    47    44    47      1
    48    44    48      1
    49    44    49      1
    50    49    50      1
    51    49    51      1
    52    49    52      1
    53    50    53      1
    54    50    54      1
    55    50    55      1
    56    55    56      1
    57    55    57      1
    58    55    58      1
    59    56    59      1
    60    56    60      1
    61    56    61      1
    62    61    62      1
    63    61    63      1
    64    61    64      1
    65    62    65      1
    66    62    66      1
    67    62    67      1
    68    67    68      1
    69    67    69      1
    70    67    70      1
    71    68    71      1
    72    68    72      1
    73    68    73      1
    74    73    74      1
    75    73    75      1
    76    73    76      1
    77    74    77      1
    78    74    78      1
    79    74    79      1
    80    79    80      1
    81    79    81      1
    82    79    82      1
    83    80    83      1
    84    80    84      1
    85    80    85      1
    86    85    86      1
    87    85    87      1
    88    85    88      1
    89    86    89      1
    90    86    90      1
    91    86    91      1
    92    91    92      1
    93    91    93      1
    94    91    94      1
    95    92    95      1
    96    92    96      1
    97    92    97      1
    98    97    98      1
    99    97    99      1
   100    97   100      1
   101    98   101      1
   102    98   102      1
   103    98   103      1
   104   103   104      1
   105   103   105      1
   106   103   106      1
   107   104   107      1
   108   104   108      1
   109   104   109      1
   110   109   110      1
   111   109   111      1
   112   109   112      1
   113   110   113      1
   114   110   114      1
   115   110   115      1
   116   115   116      1
   117   115   117      1
   118   115   118      1
   119   116   119      1
   120   116   120      1
   121   116   121      1
   122   121   122      1
   123   121   123      1
   124   121   124      1
   125   122   125      1
   126   122   126      1
   127   122   127      1
   128   127   128      1
   129   127   129      1
   130   127   130      1
   131   128   131      1
   132   128   132      1
   133   128   133      1
   134   133   134      1
   135   133   135      1
   136   133   136      1
   137   134   137      1
   138   134   138      1
   139   134   139      1
   140   139   140      1
   141   139   141      1
   142   139   142      1
   143   140   143      1
   144   140   144      1
   145   140   145      1
   146   145   146      1
   147   145   147      1
   148   145   148      1
   149   146   149      1
   150   146   150      1
   151   146   151      1
   152   151   152      1
   153   151   153      1
   154   151   154      1
   155   152   155      1
   156   152   156      1
   157   152   157      1
   158   157   158      1
   159   157   159      1
   160   157   160      1
   161   158   161      1
   162   158   162      1
   163   158   163      1
   164   163   164      1
   165   163   165      1
   166   163   166      1
   167   164   167      1
   168   164   168      1
   169   164   169      1
   170   169   170      1
   171   169   171      1
   172   169   172      1
   173   170   173      1
   174   170   174      1
   175   170   175      1
   176   175   176      1
   177   175   177      1
   178   175   178      1
   179   176   179      1
   180   176   180      1
   181   176   181      1
   182   181   182      1
   183   181   183      1
   184   181   184      1
   185   182   185      1
   186   182   186      1
   187   182   187      1
   188   187   188      1
   189   187   189      1
   190   187   190      1
   191   188   191      1
   192   188   192      1
   193   188   193      1
   194   193   194      1
   195   193   195      1
   196   193   196      1
   197   194   197      1
   198   194   198      1
   199   194   199      1
   200   199   200      1
   201   199   201      1
   202   199   202      1
   203   200   203      1
   204   200   204      1
   205   200   205      1
   206   205   206      1
   207   205   207      1
   208   205   208      1
   209   206   209      1
   210   206   210      1
   211   206   211      1
   212   211   212      1
   213   211   213      1
   214   211   214      1
   215   212   215      1
   216   212   216      1
   217   212   217      1
   218   217   218      1
   219   217   219      1
   220   217   220      1
   221   218   221      1
   222   218   222      1
   223   218   223      1
   224   223   224      1
   225   223   225      1
   226   223   226      1
   227   224   227      1
   228   224   228      1
   229   224   229      1
   230   229   230      1
   231   229   231      1
   232   229   232      1
   233   230   233      1
   234   230   234      1
   235   230   235      1
   236   235   236      1
   237   235   237      1
   238   235   238      1
   239   236   239      1
   240   236   240      1
   241   236   241      1
   242   241   242      1
   243   241   243      1
   244   241   244      1
   245   242   245      1
   246   242   246      1
   247   242   247      1
   248   247   248      1
   249   247   249      1
   250   247   250      1
   251   248   251      1
   252   248   252      1
   253   248   253      1
   254   253   254      1
   255   253   255      1
   256   253   256      1
   257   254   257      1
   258   254   258      1
   259   254   259      1
   260   259   260      1
   261   259   261      1
   262   259   262      1
   263   260   263      1
   264   260   264      1
   265   260   265      1
   266   265   266      1
   267   265   267      1
   268   265   268      1
   269   266   269      1
   270   266   270      1
   271   266   271      1
   272   271   272      1
   273   271   273      1
   274   271   274      1
   275   272   275      1
   276   272   276      1
   277   272   277      1
   278   277   278      1
   279   277   279      1
   280   277   280      1
   281   278   281      1
   282   278   282      1
   283   278   283      1
   284   283   284      1
   285   283   285      1
   286   283   286      1
   287   284   287      1
   288   284   288      1
   289   284   289      H
