###
### Created by PolyChef-cpp17 on Thu Feb 27 19:40:28 2025
###

@<TRIPOS>MOLECULE
NO_INFO
296 295 1 0 0
SMALL
USER_CHARGES


@<TRIPOS>ATOM
      1 C         109.2798   18.5487  -39.3449 C.3       0        0    0.0000
      2 C         107.8706   18.3882  -38.7641 C.3       0        0    0.0000
      3 H         109.9271   17.7366  -38.9913 H         0        0    0.0000
      4 H         109.7280   19.4855  -38.9913 H         0        0    0.0000
      5 H         107.3722   19.3641  -38.7111 H         0        0    0.0000
      6 H         107.2611   17.7586  -39.4242 H         0        0    0.0000
      7 C         107.8873   17.7510  -37.3319 C.3       1        0    0.0000
      8 C         109.1651   18.0943  -36.5583 C.3       1        0    0.0000
      9 H         107.0071   18.1012  -36.7787 H         1        0    0.0000
     10 H         107.7866   16.6628  -37.4279 H         1        0    0.0000
     11 H         110.0455   17.9153  -37.1878 H         1        0    0.0000
     12 H         109.1737   19.1606  -36.3005 H         1        0    0.0000
     13 C         109.3061   17.2550  -35.2418 C.3       2        0    0.0000
     14 C         110.2082   17.9406  -34.2097 C.3       2        0    0.0000
     15 H         108.3075   17.0908  -34.8184 H         2        0    0.0000
     16 H         109.7078   16.2659  -35.4944 H         2        0    0.0000
     17 H         111.2617   17.8161  -34.4892 H         2        0    0.0000
     18 H         110.0114   19.0198  -34.1960 H         2        0    0.0000
     19 C         109.9979   17.3703  -32.7648 C.3       3        0    0.0000
     20 C         110.6241   18.2657  -31.6900 C.3       3        0    0.0000
     21 H         108.9220   17.2590  -32.5816 H         3        0    0.0000
     22 H         110.4316   16.3638  -32.7153 H         3        0    0.0000
     23 H         111.7132   18.3009  -31.8174 H         3        0    0.0000
     24 H         110.2608   19.2950  -31.7995 H         3        0    0.0000
     25 C         110.3009   17.7674  -30.2393 C.3       4        0    0.0000
     26 C         110.9062   18.6769  -29.1643 C.3       4        0    0.0000
     27 H         109.2119   17.7148  -30.1178 H         4        0    0.0000
     28 H         110.6805   16.7445  -30.1239 H         4        0    0.0000
     29 H         111.9958   18.7256  -29.2828 H         4        0    0.0000
     30 H         110.5304   19.7007  -29.2826 H         4        0    0.0000
     31 C         110.5774   18.1823  -27.7136 C.3       5        0    0.0000
     32 C         111.1779   19.0949  -26.6387 C.3       5        0    0.0000
     33 H         109.4878   18.1296  -27.5964 H         5        0    0.0000
     34 H         110.9569   17.1599  -27.5940 H         5        0    0.0000
     35 H         112.2674   19.1483  -26.7563 H         5        0    0.0000
     36 H         110.7977   20.1171  -26.7577 H         5        0    0.0000
     37 C         110.8501   18.5997  -25.1879 C.3       6        0    0.0000
     38 C         111.4346   19.5228  -24.1130 C.3       6        0    0.0000
     39 H         109.7609   18.5329  -25.0747 H         6        0    0.0000
     40 H         111.2426   17.5827  -25.0643 H         6        0    0.0000
     41 H         112.5239   19.5880  -24.2250 H         6        0    0.0000
     42 H         111.0436   20.5402  -24.2378 H         6        0    0.0000
     43 C         111.1044   19.0290  -22.6623 C.3       7        0    0.0000
     44 C         112.2243   19.3562  -21.6684 C.3       7        0    0.0000
     45 H         110.1649   19.4923  -22.3363 H         7        0    0.0000
     46 H         110.9292   17.9463  -22.6886 H         7        0    0.0000
     47 H         113.1879   19.0065  -22.0591 H         7        0    0.0000
     48 H         112.3106   20.4427  -21.5433 H         7        0    0.0000
     49 C         111.9816   18.7036  -20.2639 C.3       8        0    0.0000
     50 C         112.0366   19.7315  -19.1284 C.3       8        0    0.0000
     51 H         111.0056   18.2025  -20.2707 H         8        0    0.0000
     52 H         112.7353   17.9231  -20.1016 H         8        0    0.0000
     53 H         113.0790   19.9254  -18.8467 H         8        0    0.0000
     54 H         111.6185   20.6879  -19.4662 H         8        0    0.0000
     55 C         111.2499   19.2566  -17.8584 C.3       9        0    0.0000
     56 C         112.1099   19.3048  -16.5907 C.3       9        0    0.0000
     57 H         110.3622   19.8894  -17.7351 H         9        0    0.0000
     58 H         110.8874   18.2352  -18.0284 H         9        0    0.0000
     59 H         113.1129   18.9136  -16.8014 H         9        0    0.0000
     60 H         112.2394   20.3439  -16.2633 H         9        0    0.0000
     61 C         111.4822   18.4793  -15.4152 C.3      10        0    0.0000
     62 C         111.8218   19.0717  -14.0431 C.3      10        0    0.0000
     63 H         110.3941   18.4428  -15.5502 H        10        0    0.0000
     64 H         111.8422   17.4449  -15.4778 H        10        0    0.0000
     65 H         112.8977   18.9792  -13.8493 H        10        0    0.0000
     66 H         111.5902   20.1440  -14.0285 H        10        0    0.0000
     67 C         111.0370   18.3695  -12.8819 C.3      11        0    0.0000
     68 C         111.5152   18.8252  -11.4989 C.3      11        0    0.0000
     69 H         109.9672   18.5822  -12.9989 H        11        0    0.0000
     70 H         111.1550   17.2833  -12.9817 H        11        0    0.0000
     71 H         112.5933   18.6496  -11.3970 H        11        0    0.0000
     72 H         111.3596   19.9051  -11.3841 H        11        0    0.0000
     73 C         110.7701   18.0811  -10.3377 C.3      12        0    0.0000
     74 C         111.2383   18.5468   -8.9546 C.3      12        0    0.0000
     75 H         109.6912   18.2482  -10.4455 H        12        0    0.0000
     76 H         110.9341   17.0018  -10.4466 H        12        0    0.0000
     77 H         112.3168   18.3777   -8.8459 H        12        0    0.0000
     78 H         111.0763   19.6265   -8.8465 H        12        0    0.0000
     79 C         110.4910   17.8049   -7.7933 C.3      13        0    0.0000
     80 C         110.9554   18.2746   -6.4103 C.3      13        0    0.0000
     81 H         109.4122   17.9708   -7.9043 H        13        0    0.0000
     82 H         110.6563   16.7256   -7.8992 H        13        0    0.0000
     83 H         112.0335   18.1057   -6.2982 H        13        0    0.0000
     84 H         110.7931   19.3545   -6.3057 H        13        0    0.0000
     85 C         110.2048   17.5359   -5.2491 C.3      14        0    0.0000
     86 C         110.6560   18.0186   -3.8662 C.3      14        0    0.0000
     87 H         109.1257   17.6936   -5.3689 H        14        0    0.0000
     88 H         110.3782   16.4570   -5.3459 H        14        0    0.0000
     89 H         111.7326   17.8487   -3.7413 H        14        0    0.0000
     90 H         110.4950   19.0999   -3.7742 H        14        0    0.0000
     91 C         109.8920   17.2934   -2.7053 C.3      15        0    0.0000
     92 C         110.3564   17.7627   -1.3221 C.3      15        0    0.0000
     93 H         108.8164   17.4747   -2.8224 H        15        0    0.0000
     94 H         110.0418   16.2113   -2.8052 H        15        0    0.0000
     95 H         111.4461   17.6674   -1.2388 H        15        0    0.0000
     96 H         110.1220   18.8260   -1.1873 H        15        0    0.0000
     97 C         109.6877   16.9469   -0.1625 C.3      16        0    0.0000
     98 C         110.1917   17.3806    1.2185 C.3      16        0    0.0000
     99 H         108.5997   17.0737   -0.2226 H        16        0    0.0000
    100 H         109.8897   15.8800   -0.3186 H        16        0    0.0000
    101 H         111.2830   17.2796    1.2694 H        16        0    0.0000
    102 H         109.9654   18.4409    1.3856 H        16        0    0.0000
    103 C         109.5518   16.5388    2.3758 C.3      17        0    0.0000
    104 C         110.0912   16.9405    3.7530 C.3      17        0    0.0000
    105 H         108.4627   16.6674    2.3461 H        17        0    0.0000
    106 H         109.7486   15.4756    2.1902 H        17        0    0.0000
    107 H         111.1820   16.8265    3.7777 H        17        0    0.0000
    108 H         109.8807   17.9999    3.9450 H        17        0    0.0000
    109 C         109.4674   16.0840    4.9083 C.3      18        0    0.0000
    110 C         110.0957   16.4000    6.2700 C.3      18        0    0.0000
    111 H         108.3864   16.2681    4.9410 H        18        0    0.0000
    112 H         109.5988   15.0210    4.6709 H        18        0    0.0000
    113 H         111.1811   16.2459    6.2283 H        18        0    0.0000
    114 H         109.9368   17.4559    6.5217 H        18        0    0.0000
    115 C         109.5031   15.5122    7.4181 C.3      19        0    0.0000
    116 C         110.5956   14.8998    8.3016 C.3      19        0    0.0000
    117 H         108.8274   16.1259    8.0267 H        19        0    0.0000
    118 H         108.8916   14.7184    6.9715 H        19        0    0.0000
    119 H         111.4726   14.6456    7.6934 H        19        0    0.0000
    120 H         110.9307   15.6316    9.0471 H        19        0    0.0000
    121 C         110.1050   13.6097    9.0448 C.3      20        0    0.0000
    122 C         109.9145   13.8422   10.5477 C.3      20        0    0.0000
    123 H         109.1618   13.2784    8.5929 H        20        0    0.0000
    124 H         110.8335   12.8067    8.8777 H        20        0    0.0000
    125 H         110.8034   13.5063   11.0959 H        20        0    0.0000
    126 H         109.8051   14.9145   10.7516 H        20        0    0.0000
    127 C         108.6595   13.0902   11.1108 C.3      21        0    0.0000
    128 C         109.0336   11.7785   11.8097 C.3      21        0    0.0000
    129 H         108.1347   13.7527   11.8102 H        21        0    0.0000
    130 H         107.9660   12.8916   10.2843 H        21        0    0.0000
    131 H         110.0235   11.4434   11.4760 H        21        0    0.0000
    132 H         109.1030   11.9360   12.8932 H        21        0    0.0000
    133 C         107.9938   10.6390   11.5304 C.3      22        0    0.0000
    134 C         108.6679    9.2837   11.2900 C.3      22        0    0.0000
    135 H         107.3061   10.5712   12.3825 H        22        0    0.0000
    136 H         107.3889   10.9181   10.6588 H        22        0    0.0000
    137 H         109.6002    9.4217   10.7284 H        22        0    0.0000
    138 H         108.9422    8.8248   12.2480 H        22        0    0.0000
    139 C         107.7447    8.2926   10.5008 C.3      23        0    0.0000
    140 C         107.2685    7.1244   11.3713 C.3      23        0    0.0000
    141 H         106.8821    8.8472   10.1110 H        23        0    0.0000
    142 H         108.2949    7.9136    9.6307 H        23        0    0.0000
    143 H         107.9574    6.2764   11.2723 H        23        0    0.0000
    144 H         107.2771    7.4155   12.4290 H        23        0    0.0000
    145 C         105.8242    6.6493   10.9897 C.3      24        0    0.0000
    146 C         105.7625    5.1433   10.7119 C.3      24        0    0.0000
    147 H         105.1391    6.9096   11.8060 H        24        0    0.0000
    148 H         105.4896    7.2086   10.1072 H        24        0    0.0000
    149 H         106.6603    4.8240   10.1683 H        24        0    0.0000
    150 H         105.7518    4.5866   11.6571 H        24        0    0.0000
    151 C         104.4974    4.7446    9.8763 C.3      25        0    0.0000
    152 C         104.5654    3.2984    9.3736 C.3      25        0    0.0000
    153 H         103.6044    4.8853   10.4978 H        25        0    0.0000
    154 H         104.4025    5.4337    9.0279 H        25        0    0.0000
    155 H         105.5011    3.1345    8.8247 H        25        0    0.0000
    156 H         104.5732    2.6047   10.2235 H        25        0    0.0000
    157 C         103.3607    2.9374    8.4378 C.3      26        0    0.0000
    158 C         103.7499    1.9261    7.3539 C.3      26        0    0.0000
    159 H         102.5444    2.5360    9.0511 H        26        0    0.0000
    160 H         102.9840    3.8581    7.9753 H        26        0    0.0000
    161 H         104.6826    2.2368    6.8670 H        26        0    0.0000
    162 H         103.9423    0.9453    7.8062 H        26        0    0.0000
    163 C         102.6373    1.7690    6.2608 C.3      27        0    0.0000
    164 C         103.1081    0.9277    5.0694 C.3      27        0    0.0000
    165 H         101.7531    1.3095    6.7198 H        27        0    0.0000
    166 H         102.3330    2.7664    5.9201 H        27        0    0.0000
    167 H         104.0235    1.3573    4.6439 H        27        0    0.0000
    168 H         103.3612   -0.0867    5.4018 H        27        0    0.0000
    169 C         102.0226    0.8340    3.9423 C.3      28        0    0.0000
    170 C         102.5410    0.1091    2.6954 C.3      28        0    0.0000
    171 H         101.1427    0.3140    4.3411 H        28        0    0.0000
    172 H         101.6970    1.8482    3.6797 H        28        0    0.0000
    173 H         103.4430    0.6070    2.3185 H        28        0    0.0000
    174 H         102.8313   -0.9176    2.9506 H        28        0    0.0000
    175 C         101.4733    0.0620    1.5486 C.3      29        0    0.0000
    176 C         102.0618   -0.4453    0.2275 C.3      29        0    0.0000
    177 H         100.6442   -0.5837    1.8636 H        29        0    0.0000
    178 H         101.0556    1.0673    1.4129 H        29        0    0.0000
    179 H         102.9460    0.1455   -0.0419 H        29        0    0.0000
    180 H         102.3987   -1.4833    0.3398 H        29        0    0.0000
    181 C         101.0286   -0.3739   -0.9494 C.3      30        0    0.0000
    182 C         101.6992   -0.5153   -2.3203 C.3      30        0    0.0000
    183 H         100.2816   -1.1656   -0.8126 H        30        0    0.0000
    184 H         100.4908    0.5804   -0.8904 H        30        0    0.0000
    185 H         102.5341    0.1913   -2.4054 H        30        0    0.0000
    186 H         102.1249   -1.5206   -2.4289 H        30        0    0.0000
    187 C         100.6989   -0.2601   -3.5001 C.3      31        0    0.0000
    188 C         101.3819   -0.3458   -4.8695 C.3      31        0    0.0000
    189 H          99.8854   -0.9935   -3.4389 H        31        0    0.0000
    190 H         100.2422    0.7287   -3.3688 H        31        0    0.0000
    191 H         102.1925    0.3907   -4.9323 H        31        0    0.0000
    192 H         101.8426   -1.3331   -4.9989 H        31        0    0.0000
    193 C         100.3804   -0.0969   -6.0495 C.3      32        0    0.0000
    194 C         101.0519   -0.2352   -7.4202 C.3      32        0    0.0000
    195 H          99.5495   -0.8082   -5.9641 H        32        0    0.0000
    196 H          99.9489    0.9059   -5.9415 H        32        0    0.0000
    197 H         101.8713    0.4883   -7.5124 H        32        0    0.0000
    198 H         101.4989   -1.2320   -7.5213 H        32        0    0.0000
    199 C         100.0447   -0.0112   -8.6005 C.3      33        0    0.0000
    200 C         100.7147   -0.1566   -9.9713 C.3      33        0    0.0000
    201 H          99.2226   -0.7312   -8.5053 H        33        0    0.0000
    202 H          99.6017    0.9876   -8.5024 H        33        0    0.0000
    203 H         101.5357    0.5647  -10.0671 H        33        0    0.0000
    204 H         101.1593   -1.1548  -10.0686 H        33        0    0.0000
    205 C          99.7070    0.0650  -11.1515 C.3      34        0    0.0000
    206 C         100.3765   -0.0825  -12.5223 C.3      34        0    0.0000
    207 H          98.8852   -0.6553  -11.0548 H        34        0    0.0000
    208 H          99.2635    1.0638  -11.0550 H        34        0    0.0000
    209 H         101.1976    0.6385  -12.6195 H        34        0    0.0000
    210 H         100.8210   -1.0809  -12.6184 H        34        0    0.0000
    211 C          99.3685    0.1376  -13.7026 C.3      35        0    0.0000
    212 C         100.0383   -0.0085  -15.0733 C.3      35        0    0.0000
    213 H          98.5480   -0.5842  -13.6060 H        35        0    0.0000
    214 H          98.9233    1.1355  -13.6059 H        35        0    0.0000
    215 H         100.8568    0.7154  -15.1711 H        35        0    0.0000
    216 H         100.4864   -1.0053  -15.1688 H        35        0    0.0000
    217 C          99.0294    0.2071  -16.2536 C.3      36        0    0.0000
    218 C          99.6996    0.0632  -17.6244 C.3      36        0    0.0000
    219 H          98.2117   -0.5179  -16.1567 H        36        0    0.0000
    220 H          98.5801    1.2033  -16.1572 H        36        0    0.0000
    221 H         100.5189    0.7865  -17.7203 H        36        0    0.0000
    222 H         100.1467   -0.9339  -17.7217 H        36        0    0.0000
    223 C          98.6914    0.2823  -18.8046 C.3      37        0    0.0000
    224 C          99.3618    0.1390  -20.1754 C.3      37        0    0.0000
    225 H          97.8724   -0.4412  -18.7090 H        37        0    0.0000
    226 H          98.2441    1.2793  -18.7070 H        37        0    0.0000
    227 H         100.1763    0.8674  -20.2738 H        37        0    0.0000
    228 H          99.8153   -0.8554  -20.2702 H        37        0    0.0000
    229 C          98.3515    0.3483  -21.3556 C.3      38        0    0.0000
    230 C          99.0219    0.2051  -22.7264 C.3      38        0    0.0000
    231 H          97.5371   -0.3801  -21.2573 H        38        0    0.0000
    232 H          97.8979    1.3427  -21.2608 H        38        0    0.0000
    233 H          99.2661   -0.8472  -22.9177 H        38        0    0.0000
    234 H          98.3295    0.5167  -23.5182 H        38        0    0.0000
    235 C         100.3334    1.0565  -22.8382 C.3      39        0    0.0000
    236 C         100.9850    0.9409  -24.2207 C.3      39        0    0.0000
    237 H         100.0939    2.1050  -22.6217 H        39        0    0.0000
    238 H         101.0359    0.7272  -22.0626 H        39        0    0.0000
    239 H         101.0250    1.9263  -24.7012 H        39        0    0.0000
    240 H         102.0219    0.5970  -24.1203 H        39        0    0.0000
    241 C         100.2132   -0.0485  -25.1603 C.3      40        0    0.0000
    242 C         100.6080    0.1204  -26.6315 C.3      40        0    0.0000
    243 H         100.4136   -1.0762  -24.8327 H        40        0    0.0000
    244 H          99.1355    0.1164  -25.0387 H        40        0    0.0000
    245 H         100.9477    1.1474  -26.8143 H        40        0    0.0000
    246 H         101.4517   -0.5381  -26.8727 H        40        0    0.0000
    247 C          99.4222   -0.2004  -27.6055 C.3      41        0    0.0000
    248 C          99.8234   -0.0533  -29.0773 C.3      41        0    0.0000
    249 H          99.0716   -1.2216  -27.4113 H        41        0    0.0000
    250 H          98.5844    0.4695  -27.3752 H        41        0    0.0000
    251 H         100.0744    0.9920  -29.2962 H        41        0    0.0000
    252 H         100.7254   -0.6434  -29.2821 H        41        0    0.0000
    253 C          98.6857   -0.5146  -30.0522 C.3      42        0    0.0000
    254 C          99.0853   -0.3634  -31.5241 C.3      42        0    0.0000
    255 H          98.4371   -1.5609  -29.8355 H        42        0    0.0000
    256 H          97.7828    0.0731  -29.8452 H        42        0    0.0000
    257 H          98.3416   -0.8496  -32.1676 H        42        0    0.0000
    258 H          99.0981    0.6974  -31.8033 H        42        0    0.0000
    259 C         100.4943   -0.9818  -31.8238 C.3      43        0    0.0000
    260 C         100.9450   -0.7281  -33.2665 C.3      43        0    0.0000
    261 H         101.2231   -0.5578  -31.1219 H        43        0    0.0000
    262 H         100.4566   -2.0601  -31.6255 H        43        0    0.0000
    263 H         101.8117   -0.0555  -33.2771 H        43        0    0.0000
    264 H         101.2700   -1.6680  -33.7298 H        43        0    0.0000
    265 C          99.8071   -0.0998  -34.1427 C.3      44        0    0.0000
    266 C         100.1693   -0.0708  -35.6316 C.3      44        0    0.0000
    267 H          98.8854   -0.6752  -33.9909 H        44        0    0.0000
    268 H          99.6059    0.9175  -33.7846 H        44        0    0.0000
    269 H         100.8311    0.7787  -35.8413 H        44        0    0.0000
    270 H         100.7253   -0.9773  -35.9012 H        44        0    0.0000
    271 C          98.9028    0.0368  -36.5492 C.3      45        0    0.0000
    272 C          99.2642    0.0508  -38.0386 C.3      45        0    0.0000
    273 H          98.2359   -0.8067  -36.3318 H        45        0    0.0000
    274 H          98.3527    0.9491  -36.2870 H        45        0    0.0000
    275 H          98.3549   -0.0303  -38.6470 H        45        0    0.0000
    276 H          99.7357    1.0056  -38.3024 H        45        0    0.0000
    277 C         100.2364   -1.1167  -38.4250 C.3      46        0    0.0000
    278 C         100.8351   -0.9349  -39.8242 C.3      46        0    0.0000
    279 H         101.0374   -1.1719  -37.6774 H        46        0    0.0000
    280 H          99.6887   -2.0657  -38.3706 H        46        0    0.0000
    281 H         101.8723   -0.5860  -39.7471 H        46        0    0.0000
    282 H         100.8648   -1.8980  -40.3486 H        46        0    0.0000
    283 C         100.0213    0.0872  -40.6904 C.3      47        0    0.0000
    284 C         100.6553    0.3164  -42.0668 C.3      47        0    0.0000
    285 H          98.9957   -0.2849  -40.8059 H        47        0    0.0000
    286 H          99.9524    1.0367  -40.1452 H        47        0    0.0000
    287 H         100.5499   -0.5843  -42.6842 H        47        0    0.0000
    288 H         100.1299    1.1226  -42.5935 H        47        0    0.0000
    289 C         102.1757    0.6851  -41.9666 C.3      48        0    0.0000
    290 C         102.4949    2.0223  -42.6441 C.3      48        0    0.0000
    291 H         102.4616    0.7220  -40.9081 H        48        0    0.0000
    292 H         102.7654   -0.1187  -42.4244 H        48        0    0.0000
    293 H         102.2090    1.9854  -43.7026 H        48        0    0.0000
    294 H         101.9052    2.8262  -42.1864 H        48        0    0.0000
    295 H         103.5520    2.2787  -42.5745 H        48        0    0.0000
    296 H         109.2798   18.5487  -40.4349 H         0        0    0.0000
@<TRIPOS>BOND
     1     1     2      1
     2     1     3      1
     3     1     4      1
     4     1   296      H
     5     2     5      1
     6     2     6      1
     7     2     7      1
     8     7     8      1
     9     7     9      1
    10     7    10      1
    11     8    11      1
    12     8    12      1
    13     8    13      1
    14    13    14      1
    15    13    15      1
    16    13    16      1
    17    14    17      1
    18    14    18      1
    19    14    19      1
    20    19    20      1
    21    19    21      1
    22    19    22      1
    23    20    23      1
    24    20    24      1
    25    20    25      1
    26    25    26      1
    27    25    27      1
    28    25    28      1
    29    26    29      1
    30    26    30      1
    31    26    31      1
    32    31    32      1
    33    31    33      1
    34    31    34      1
    35    32    35      1
    36    32    36      1
    37    32    37      1
    38    37    38      1
    39    37    39      1
    40    37    40      1
    41    38    41      1
    42    38    42      1
    43    38    43      1
    44    43    44      1
    45    43    45      1
    46    43    46      1
    47    44    47      1
    48    44    48      1
    49    44    49      1
    50    49    50      1
    51    49    51      1
    52    49    52      1
    53    50    53      1
    54    50    54      1
    55    50    55      1
    56    55    56      1
    57    55    57      1
    58    55    58      1
    59    56    59      1
    60    56    60      1
    61    56    61      1
    62    61    62      1
    63    61    63      1
    64    61    64      1
    65    62    65      1
    66    62    66      1
    67    62    67      1
    68    67    68      1
    69    67    69      1
    70    67    70      1
    71    68    71      1
    72    68    72      1
    73    68    73      1
    74    73    74      1
    75    73    75      1
    76    73    76      1
    77    74    77      1
    78    74    78      1
    79    74    79      1
    80    79    80      1
    81    79    81      1
    82    79    82      1
    83    80    83      1
    84    80    84      1
    85    80    85      1
    86    85    86      1
    87    85    87      1
    88    85    88      1
    89    86    89      1
    90    86    90      1
    91    86    91      1
    92    91    92      1
    93    91    93      1
    94    91    94      1
    95    92    95      1
    96    92    96      1
    97    92    97      1
    98    97    98      1
    99    97    99      1
   100    97   100      1
   101    98   101      1
   102    98   102      1
   103    98   103      1
   104   103   104      1
   105   103   105      1
   106   103   106      1
   107   104   107      1
   108   104   108      1
   109   104   109      1
   110   109   110      1
   111   109   111      1
   112   109   112      1
   113   110   113      1
   114   110   114      1
   115   110   115      1
   116   115   116      1
   117   115   117      1
   118   115   118      1
   119   116   119      1
   120   116   120      1
   121   116   121      1
   122   121   122      1
   123   121   123      1
   124   121   124      1
   125   122   125      1
   126   122   126      1
   127   122   127      1
   128   127   128      1
   129   127   129      1
   130   127   130      1
   131   128   131      1
   132   128   132      1
   133   128   133      1
   134   133   134      1
   135   133   135      1
   136   133   136      1
   137   134   137      1
   138   134   138      1
   139   134   139      1
   140   139   140      1
   141   139   141      1
   142   139   142      1
   143   140   143      1
   144   140   144      1
   145   140   145      1
   146   145   146      1
   147   145   147      1
   148   145   148      1
   149   146   149      1
   150   146   150      1
   151   146   151      1
   152   151   152      1
   153   151   153      1
   154   151   154      1
   155   152   155      1
   156   152   156      1
   157   152   157      1
   158   157   158      1
   159   157   159      1
   160   157   160      1
   161   158   161      1
   162   158   162      1
   163   158   163      1
   164   163   164      1
   165   163   165      1
   166   163   166      1
   167   164   167      1
   168   164   168      1
   169   164   169      1
   170   169   170      1
   171   169   171      1
   172   169   172      1
   173   170   173      1
   174   170   174      1
   175   170   175      1
   176   175   176      1
   177   175   177      1
   178   175   178      1
   179   176   179      1
   180   176   180      1
   181   176   181      1
   182   181   182      1
   183   181   183      1
   184   181   184      1
   185   182   185      1
   186   182   186      1
   187   182   187      1
   188   187   188      1
   189   187   189      1
   190   187   190      1
   191   188   191      1
   192   188   192      1
   193   188   193      1
   194   193   194      1
   195   193   195      1
   196   193   196      1
   197   194   197      1
   198   194   198      1
   199   194   199      1
   200   199   200      1
   201   199   201      1
   202   199   202      1
   203   200   203      1
   204   200   204      1
   205   200   205      1
   206   205   206      1
   207   205   207      1
   208   205   208      1
   209   206   209      1
   210   206   210      1
   211   206   211      1
   212   211   212      1
   213   211   213      1
   214   211   214      1
   215   212   215      1
   216   212   216      1
   217   212   217      1
   218   217   218      1
   219   217   219      1
   220   217   220      1
   221   218   221      1
   222   218   222      1
   223   218   223      1
   224   223   224      1
   225   223   225      1
   226   223   226      1
   227   224   227      1
   228   224   228      1
   229   224   229      1
   230   229   230      1
   231   229   231      1
   232   229   232      1
   233   230   233      1
   234   230   234      1
   235   230   235      1
   236   235   236      1
   237   235   237      1
   238   235   238      1
   239   236   239      1
   240   236   240      1
   241   236   241      1
   242   241   242      1
   243   241   243      1
   244   241   244      1
   245   242   245      1
   246   242   246      1
   247   242   247      1
   248   247   248      1
   249   247   249      1
   250   247   250      1
   251   248   251      1
   252   248   252      1
   253   248   253      1
   254   253   254      1
   255   253   255      1
   256   253   256      1
   257   254   257      1
   258   254   258      1
   259   254   259      1
   260   259   260      1
   261   259   261      1
   262   259   262      1
   263   260   263      1
   264   260   264      1
   265   260   265      1
   266   265   266      1
   267   265   267      1
   268   265   268      1
   269   266   269      1
   270   266   270      1
   271   266   271      1
   272   271   272      1
   273   271   273      1
   274   271   274      1
   275   272   275      1
   276   272   276      1
   277   272   277      1
   278   277   278      1
   279   277   279      1
   280   277   280      1
   281   278   281      1
   282   278   282      1
   283   278   283      1
   284   283   284      1
   285   283   285      1
   286   283   286      1
   287   284   287      1
   288   284   288      1
   289   284   289      1
   290   289   290      1
   291   289   291      1
   292   289   292      1
   293   290   293      1
   294   290   294      1
   295   290   295      H
