###
### Created by PolyChef-cpp17 on Thu Feb 27 19:40:28 2025
###

@<TRIPOS>MOLECULE
NO_INFO
290 289 1 0 0
SMALL
USER_CHARGES


@<TRIPOS>ATOM
      1 C          19.2798  139.7887  -39.3449 C.3       0        0    0.0000
      2 C          17.8706  139.6282  -38.7641 C.3       0        0    0.0000
      3 H          19.9271  138.9766  -38.9913 H         0        0    0.0000
      4 H          19.7280  140.7255  -38.9913 H         0        0    0.0000
      5 H          17.3720  140.6040  -38.7115 H         0        0    0.0000
      6 H          17.2612  138.9982  -39.4240 H         0        0    0.0000
      7 C          17.8874  138.9915  -37.3317 C.3       1        0    0.0000
      8 C          19.1653  139.3348  -36.5584 C.3       1        0    0.0000
      9 H          17.0073  139.3422  -36.7785 H         1        0    0.0000
     10 H          17.7864  137.9033  -37.4272 H         1        0    0.0000
     11 H          20.0455  139.1574  -37.1886 H         1        0    0.0000
     12 H          19.1732  140.4008  -36.2991 H         1        0    0.0000
     13 C          19.3078  138.4939  -35.2431 C.3       2        0    0.0000
     14 C          20.2063  139.1810  -34.2088 C.3       2        0    0.0000
     15 H          18.3093  138.3255  -34.8211 H         2        0    0.0000
     16 H          19.7133  137.5066  -35.4968 H         2        0    0.0000
     17 H          21.2607  139.0583  -34.4859 H         2        0    0.0000
     18 H          20.0076  140.2599  -34.1955 H         2        0    0.0000
     19 C          19.9937  138.6101  -32.7644 C.3       3        0    0.0000
     20 C          20.6217  139.5031  -31.6887 C.3       3        0    0.0000
     21 H          18.9173  138.5017  -32.5820 H         3        0    0.0000
     22 H          20.4246  137.6024  -32.7155 H         3        0    0.0000
     23 H          21.7107  139.5369  -31.8166 H         3        0    0.0000
     24 H          20.2597  140.5331  -31.7964 H         3        0    0.0000
     25 C          20.2986  139.0029  -30.2385 C.3       4        0    0.0000
     26 C          20.9015  139.9127  -29.1625 C.3       4        0    0.0000
     27 H          19.2096  138.9482  -30.1178 H         4        0    0.0000
     28 H          20.6801  137.9808  -30.1238 H         4        0    0.0000
     29 H          21.9914  139.9610  -29.2782 H         4        0    0.0000
     30 H          20.5264  140.9367  -29.2822 H         4        0    0.0000
     31 C          20.5688  139.4190  -27.7123 C.3       5        0    0.0000
     32 C          21.1842  140.3204  -26.6363 C.3       5        0    0.0000
     33 H          19.4789  139.3812  -27.5931 H         5        0    0.0000
     34 H          20.9342  138.3912  -27.5962 H         5        0    0.0000
     35 H          22.2739  140.3600  -26.7570 H         5        0    0.0000
     36 H          20.8170  141.3478  -26.7511 H         5        0    0.0000
     37 C          20.8542  139.8248  -25.1862 C.3       6        0    0.0000
     38 C          21.4477  140.7408  -24.1102 C.3       6        0    0.0000
     39 H          19.7647  139.7668  -25.0717 H         6        0    0.0000
     40 H          21.2385  138.8044  -25.0652 H         6        0    0.0000
     41 H          22.5377  140.7948  -24.2215 H         6        0    0.0000
     42 H          21.0673  141.7624  -24.2343 H         6        0    0.0000
     43 C          21.1116  140.2492  -22.6601 C.3       7        0    0.0000
     44 C          22.2230  140.5868  -21.6601 C.3       7        0    0.0000
     45 H          20.1670  140.7072  -22.3414 H         7        0    0.0000
     46 H          20.9438  139.1653  -22.6841 H         7        0    0.0000
     47 H          23.1905  140.2363  -22.0406 H         7        0    0.0000
     48 H          22.3059  141.6745  -21.5429 H         7        0    0.0000
     49 C          21.9709  139.9447  -20.2525 C.3       8        0    0.0000
     50 C          22.0219  140.9804  -19.1240 C.3       8        0    0.0000
     51 H          20.9939  139.4458  -20.2613 H         8        0    0.0000
     52 H          22.7219  139.1636  -20.0805 H         8        0    0.0000
     53 H          23.0637  141.1828  -18.8459 H         8        0    0.0000
     54 H          21.5970  141.9319  -19.4671 H         8        0    0.0000
     55 C          21.2411  140.5089  -17.8490 C.3       9        0    0.0000
     56 C          22.1083  140.5567  -16.5861 C.3       9        0    0.0000
     57 H          20.3557  141.1440  -17.7216 H         9        0    0.0000
     58 H          20.8754  139.4882  -18.0157 H         9        0    0.0000
     59 H          23.1108  140.1676  -16.8032 H         9        0    0.0000
     60 H          22.2378  141.5955  -16.2579 H         9        0    0.0000
     61 C          21.4887  139.7282  -15.4083 C.3      10        0    0.0000
     62 C          21.8202  140.3293  -14.0380 C.3      10        0    0.0000
     63 H          20.4013  139.6789  -15.5444 H        10        0    0.0000
     64 H          21.8606  138.6977  -15.4670 H        10        0    0.0000
     65 H          22.8961  140.2457  -13.8408 H        10        0    0.0000
     66 H          21.5805  141.3998  -14.0289 H        10        0    0.0000
     67 C          21.0374  139.6263  -12.8759 C.3      11        0    0.0000
     68 C          21.5181  140.0811  -11.4934 C.3      11        0    0.0000
     69 H          19.9674  139.8392  -12.9908 H        11        0    0.0000
     70 H          21.1551  138.5402  -12.9765 H        11        0    0.0000
     71 H          22.5964  139.9054  -11.3935 H        11        0    0.0000
     72 H          21.3629  141.1610  -11.3777 H        11        0    0.0000
     73 C          20.7750  139.3363  -10.3313 C.3      12        0    0.0000
     74 C          21.2491  139.7978   -8.9488 C.3      12        0    0.0000
     75 H          19.6962  139.5065  -10.4351 H        12        0    0.0000
     76 H          20.9359  138.2569  -10.4432 H        12        0    0.0000
     77 H          22.3273  139.6244   -8.8437 H        12        0    0.0000
     78 H          21.0915  140.8779   -8.8383 H        12        0    0.0000
     79 C          20.5024  139.0567   -7.7867 C.3      13        0    0.0000
     80 C          20.9859  139.5086   -6.4043 C.3      13        0    0.0000
     81 H          19.4251  139.2381   -7.8862 H        13        0    0.0000
     82 H          20.6519  137.9761   -7.9028 H        13        0    0.0000
     83 H          22.0654  139.3380   -6.3090 H        13        0    0.0000
     84 H          20.8256  140.5872   -6.2838 H        13        0    0.0000
     85 C          20.2508  138.7556   -5.2423 C.3      14        0    0.0000
     86 C          20.7833  139.1564   -3.8622 C.3      14        0    0.0000
     87 H          19.1765  138.9681   -5.3073 H        14        0    0.0000
     88 H          20.3679  137.6751   -5.3915 H        14        0    0.0000
     89 H          21.8687  139.0032   -3.8187 H        14        0    0.0000
     90 H          20.6087  140.2253   -3.6874 H        14        0    0.0000
     91 C          20.1110  138.3390   -2.7057 C.3      15        0    0.0000
     92 C          20.5211  138.8485   -1.3197 C.3      15        0    0.0000
     93 H          19.0213  138.3954   -2.8200 H        15        0    0.0000
     94 H          20.3848  137.2822   -2.8142 H        15        0    0.0000
     95 H          21.5554  138.5547   -1.1018 H        15        0    0.0000
     96 H          20.4941  139.9451   -1.2989 H        15        0    0.0000
     97 C          19.5899  138.2985   -0.1849 C.3      16        0    0.0000
     98 C          19.8421  138.9897    1.1596 C.3      16        0    0.0000
     99 H          18.5445  138.4354   -0.4880 H        16        0    0.0000
    100 H          19.7509  137.2176   -0.0882 H        16        0    0.0000
    101 H          20.7323  138.5649    1.6398 H        16        0    0.0000
    102 H          20.0478  140.0557    1.0017 H        16        0    0.0000
    103 C          18.6249  138.8493    2.1373 C.3      17        0    0.0000
    104 C          18.8682  139.5597    3.4735 C.3      17        0    0.0000
    105 H          17.7313  139.2593    1.6507 H        17        0    0.0000
    106 H          18.4296  137.7834    2.3081 H        17        0    0.0000
    107 H          19.4394  138.9088    4.1470 H        17        0    0.0000
    108 H          19.4749  140.4600    3.3159 H        17        0    0.0000
    109 C          17.5305  139.9692    4.1808 C.3      18        0    0.0000
    110 C          17.7736  140.6712    5.5214 C.3      18        0    0.0000
    111 H          16.9624  140.6256    3.5101 H        18        0    0.0000
    112 H          16.9209  139.0698    4.3323 H        18        0    0.0000
    113 H          17.6865  139.9510    6.3444 H        18        0    0.0000
    114 H          18.7953  141.0691    5.5578 H        18        0    0.0000
    115 C          16.7650  141.8455    5.7686 C.3      19        0    0.0000
    116 C          16.9923  142.5316    7.1202 C.3      19        0    0.0000
    117 H          16.8649  142.5747    4.9551 H        19        0    0.0000
    118 H          15.7427  141.4509    5.7143 H        19        0    0.0000
    119 H          16.8884  141.8033    7.9340 H        19        0    0.0000
    120 H          18.0157  142.9227    7.1761 H        19        0    0.0000
    121 C          15.9872  143.7095    7.3649 C.3      20        0    0.0000
    122 C          16.2577  144.4390    8.6855 C.3      20        0    0.0000
    123 H          16.0556  144.4128    6.5258 H        20        0    0.0000
    124 H          14.9656  143.3097    7.3585 H        20        0    0.0000
    125 H          16.0243  143.7822    9.5327 H        20        0    0.0000
    126 H          17.3228  144.6897    8.7653 H        20        0    0.0000
    127 C          15.4172  145.7553    8.8200 C.3      21        0    0.0000
    128 C          15.7463  146.5260   10.1033 C.3      21        0    0.0000
    129 H          15.6062  146.3868    7.9431 H        21        0    0.0000
    130 H          14.3510  145.4978    8.7989 H        21        0    0.0000
    131 H          15.4998  145.9167   10.9817 H        21        0    0.0000
    132 H          16.8230  146.7303   10.1537 H        21        0    0.0000
    133 C          14.9694  147.8844   10.1964 C.3      22        0    0.0000
    134 C          15.8801  149.0477   10.6043 C.3      22        0    0.0000
    135 H          14.5048  148.0932    9.2247 H        22        0    0.0000
    136 H          14.1517  147.7752   10.9196 H        22        0    0.0000
    137 H          16.0558  149.0260   11.6870 H        22        0    0.0000
    138 H          16.8608  148.9440   10.1239 H        22        0    0.0000
    139 C          15.2732  150.4407   10.2187 C.3      23        0    0.0000
    140 C          14.8909  151.2688   11.4504 C.3      23        0    0.0000
    141 H          16.0032  150.9879    9.6094 H        23        0    0.0000
    142 H          14.3920  150.2794    9.5855 H        23        0    0.0000
    143 H          14.7746  150.6137   12.3228 H        23        0    0.0000
    144 H          15.6940  151.9759   11.6924 H        23        0    0.0000
    145 C          13.5598  152.0691   11.2384 C.3      24        0    0.0000
    146 C          13.8107  153.4807   10.6967 C.3      24        0    0.0000
    147 H          12.9171  151.5098   10.5473 H        24        0    0.0000
    148 H          13.0234  152.1227   12.1939 H        24        0    0.0000
    149 H          13.1641  154.2018   11.2120 H        24        0    0.0000
    150 H          14.8453  153.7835   10.9006 H        24        0    0.0000
    151 C          13.5499  153.5802    9.1542 C.3      25        0    0.0000
    152 C          12.6719  154.7825    8.7899 C.3      25        0    0.0000
    153 H          14.5145  153.6481    8.6360 H        25        0    0.0000
    154 H          13.0749  152.6512    8.8152 H        25        0    0.0000
    155 H          11.9876  155.0126    9.6159 H        25        0    0.0000
    156 H          13.2958  155.6724    8.6406 H        25        0    0.0000
    157 C          11.8302  154.5318    7.4914 C.3      26        0    0.0000
    158 C          11.8407  155.7412    6.5499 C.3      26        0    0.0000
    159 H          12.2301  153.6501    6.9755 H        26        0    0.0000
    160 H          10.8000  154.2881    7.7793 H        26        0    0.0000
    161 H          11.2050  156.5385    6.9546 H        26        0    0.0000
    162 H          12.8549  156.1530    6.4777 H        26        0    0.0000
    163 C          11.3394  155.3773    5.1098 C.3      27        0    0.0000
    164 C          11.3215  156.5930    4.1766 C.3      27        0    0.0000
    165 H          11.9885  154.5954    4.6965 H        27        0    0.0000
    166 H          10.3337  154.9453    5.1841 H        27        0    0.0000
    167 H          10.6720  157.3748    4.5897 H        27        0    0.0000
    168 H          12.3270  157.0254    4.1028 H        27        0    0.0000
    169 C          10.8210  156.2291    2.7363 C.3      28        0    0.0000
    170 C          10.9289  157.4119    1.7677 C.3      28        0    0.0000
    171 H          11.4079  155.3813    2.3617 H        28        0    0.0000
    172 H           9.7801  155.8882    2.7993 H        28        0    0.0000
    173 H          10.3083  158.2449    2.1205 H        28        0    0.0000
    174 H          11.9620  157.7798    1.7369 H        28        0    0.0000
    175 C          10.4845  157.0313    0.3134 C.3      29        0    0.0000
    176 C          11.0697  157.9790   -0.7395 C.3      29        0    0.0000
    177 H          10.7969  156.0003    0.1065 H        29        0    0.0000
    178 H           9.3886  157.0445    0.2637 H        29        0    0.0000
    179 H          10.6560  158.9868   -0.6099 H        29        0    0.0000
    180 H          12.1553  158.0645   -0.6067 H        29        0    0.0000
    181 C          10.7760  157.4965   -2.2019 C.3      30        0    0.0000
    182 C          11.9296  157.8121   -3.1604 C.3      30        0    0.0000
    183 H          10.5848  156.4163   -2.1861 H        30        0    0.0000
    184 H           9.8533  157.9746   -2.5534 H        30        0    0.0000
    185 H          12.0185  158.8969   -3.2975 H        30        0    0.0000
    186 H          12.8795  157.4698   -2.7313 H        30        0    0.0000
    187 C          11.7373  157.1394   -4.5632 C.3      31        0    0.0000
    188 C          11.7996  158.1562   -5.7084 C.3      31        0    0.0000
    189 H          12.5115  156.3739   -4.6974 H        31        0    0.0000
    190 H          10.7725  156.6174   -4.5758 H        31        0    0.0000
    191 H          11.3407  159.1026   -5.3965 H        31        0    0.0000
    192 H          12.8446  158.3795   -5.9567 H        31        0    0.0000
    193 C          11.0722  157.6431   -6.9987 C.3      32        0    0.0000
    194 C          11.9196  157.8401   -8.2605 C.3      32        0    0.0000
    195 H          10.8309  156.5807   -6.8698 H        32        0    0.0000
    196 H          10.1170  158.1730   -7.1006 H        32        0    0.0000
    197 H          11.9662  158.9050   -8.5198 H        32        0    0.0000
    198 H          12.9511  157.5155   -8.0753 H        32        0    0.0000
    199 C          11.3525  157.0456   -9.4871 C.3      33        0    0.0000
    200 C          11.6970  157.7149  -10.8222 C.3      33        0    0.0000
    201 H          11.7538  156.0248   -9.4634 H        33        0    0.0000
    202 H          10.2642  156.9588   -9.3796 H        33        0    0.0000
    203 H          11.4065  158.7725  -10.7988 H        33        0    0.0000
    204 H          12.7814  157.6897  -10.9868 H        33        0    0.0000
    205 C          10.9855  157.0221  -12.0351 C.3      34        0    0.0000
    206 C          11.5156  157.5233  -13.3830 C.3      34        0    0.0000
    207 H          11.1268  155.9371  -11.9553 H        34        0    0.0000
    208 H           9.9062  157.2053  -11.9637 H        34        0    0.0000
    209 H          11.3336  158.6007  -13.4817 H        34        0    0.0000
    210 H          12.6021  157.3812  -13.4363 H        34        0    0.0000
    211 C          10.8495  156.7852  -14.5950 C.3      35        0    0.0000
    212 C          11.3400  157.3233  -15.9436 C.3      35        0    0.0000
    213 H          11.0648  155.7123  -14.5173 H        35        0    0.0000
    214 H           9.7604  156.8942  -14.5202 H        35        0    0.0000
    215 H          11.1334  158.3982  -16.0174 H        35        0    0.0000
    216 H          12.4279  157.2054  -16.0225 H        35        0    0.0000
    217 C          10.6637  156.5944  -17.1556 C.3      36        0    0.0000
    218 C          11.1569  157.1301  -18.5043 C.3      36        0    0.0000
    219 H          10.8681  155.5192  -17.0805 H        36        0    0.0000
    220 H           9.5760  156.7145  -17.0783 H        36        0    0.0000
    221 H          10.9521  158.2052  -18.5796 H        36        0    0.0000
    222 H          12.2447  157.0105  -18.5815 H        36        0    0.0000
    223 C          10.4811  156.4008  -19.7163 C.3      37        0    0.0000
    224 C          10.9762  156.9348  -21.0649 C.3      37        0    0.0000
    225 H          10.6845  155.3255  -19.6400 H        37        0    0.0000
    226 H           9.3935  156.5219  -19.6401 H        37        0    0.0000
    227 H          10.7714  158.0099  -21.1419 H        37        0    0.0000
    228 H          12.0641  156.8151  -21.1405 H        37        0    0.0000
    229 C          10.3020  156.2040  -22.2769 C.3      38        0    0.0000
    230 C          10.7939  156.7410  -23.6255 C.3      38        0    0.0000
    231 H          10.5094  155.1294  -22.2016 H        38        0    0.0000
    232 H           9.2140  156.3210  -22.1996 H        38        0    0.0000
    233 H          10.5860  157.8155  -23.7010 H        38        0    0.0000
    234 H          11.8820  156.6245  -23.7026 H        38        0    0.0000
    235 C          10.1203  156.0097  -24.8375 C.3      39        0    0.0000
    236 C          10.6130  156.5458  -26.1862 C.3      39        0    0.0000
    237 H          10.3275  154.9350  -24.7616 H        39        0    0.0000
    238 H           9.0322  156.1269  -24.7609 H        39        0    0.0000
    239 H          10.4054  157.6204  -26.2622 H        39        0    0.0000
    240 H          11.7011  156.4290  -26.2626 H        39        0    0.0000
    241 C           9.9398  155.8141  -27.3981 C.3      40        0    0.0000
    242 C          10.4332  156.3496  -28.7468 C.3      40        0    0.0000
    243 H          10.1468  154.7395  -27.3217 H        40        0    0.0000
    244 H           8.8517  155.9316  -27.3221 H        40        0    0.0000
    245 H          10.2283  157.4247  -28.8223 H        40        0    0.0000
    246 H          11.5210  156.2301  -28.8238 H        40        0    0.0000
    247 C           9.7576  155.6201  -29.9588 C.3      41        0    0.0000
    248 C          10.2524  156.1544  -31.3074 C.3      41        0    0.0000
    249 H           9.9614  154.5449  -29.8825 H        41        0    0.0000
    250 H           8.6699  155.7408  -29.8825 H        41        0    0.0000
    251 H          10.0464  157.2292  -31.3847 H        41        0    0.0000
    252 H          11.3404  156.0360  -31.3827 H        41        0    0.0000
    253 C           9.5794  155.4225  -32.5194 C.3      42        0    0.0000
    254 C          10.0727  155.9581  -33.8680 C.3      42        0    0.0000
    255 H           9.7866  154.3479  -32.4429 H        42        0    0.0000
    256 H           8.4913  155.5398  -32.4434 H        42        0    0.0000
    257 H           9.8641  157.0324  -33.9452 H        42        0    0.0000
    258 H          11.1611  155.8424  -33.9433 H        42        0    0.0000
    259 C           9.4016  155.2246  -35.0800 C.3      43        0    0.0000
    260 C           9.8935  155.7615  -36.4287 C.3      43        0    0.0000
    261 H           9.6115  154.1505  -35.0036 H        43        0    0.0000
    262 H           8.3131  155.3391  -35.0040 H        43        0    0.0000
    263 H           9.6897  156.8370  -36.5023 H        43        0    0.0000
    264 H          10.9810  155.6408  -36.5075 H        43        0    0.0000
    265 C           9.2151  155.0346  -37.6406 C.3      44        0    0.0000
    266 C           9.7098  155.5689  -38.9893 C.3      44        0    0.0000
    267 H           9.4166  153.9588  -37.5655 H        44        0    0.0000
    268 H           8.1278  155.1576  -37.5632 H        44        0    0.0000
    269 H           9.3418  154.9328  -39.8038 H        44        0    0.0000
    270 H           9.3060  156.5734  -39.1669 H        44        0    0.0000
    271 C          11.2743  155.6326  -39.0654 C.3      45        0    0.0000
    272 C          11.7662  156.3216  -40.3430 C.3      45        0    0.0000
    273 H          11.6499  156.1646  -38.1826 H        45        0    0.0000
    274 H          11.6728  154.6118  -39.0112 H        45        0    0.0000
    275 H          12.2073  157.2959  -40.0990 H        45        0    0.0000
    276 H          12.5592  155.7249  -40.8108 H        45        0    0.0000
    277 C          10.6138  156.5352  -41.3842 C.3      46        0    0.0000
    278 C          11.0695  157.3581  -42.5942 C.3      46        0    0.0000
    279 H          10.2476  155.5546  -41.7125 H        46        0    0.0000
    280 H           9.7740  157.0340  -40.8847 H        46        0    0.0000
    281 H          12.0985  157.0909  -42.8649 H        46        0    0.0000
    282 H          10.4440  157.1249  -43.4648 H        46        0    0.0000
    283 C          11.0027  158.9006  -42.3228 C.3      47        0    0.0000
    284 C          10.4868  159.6821  -43.5361 C.3      47        0    0.0000
    285 H          10.3538  159.0795  -41.4565 H        47        0    0.0000
    286 H          12.0034  159.2544  -42.0453 H        47        0    0.0000
    287 H          11.1358  159.5033  -44.4024 H        47        0    0.0000
    288 H           9.4862  159.3283  -43.8137 H        47        0    0.0000
    289 H          10.4404  160.7546  -43.3474 H        47        0    0.0000
    290 H          19.2798  139.7887  -40.4349 H         0        0    0.0000
@<TRIPOS>BOND
     1     1     2      1
     2     1     3      1
     3     1     4      1
     4     1   290      H
     5     2     5      1
     6     2     6      1
     7     2     7      1
     8     7     8      1
     9     7     9      1
    10     7    10      1
    11     8    11      1
    12     8    12      1
    13     8    13      1
    14    13    14      1
    15    13    15      1
    16    13    16      1
    17    14    17      1
    18    14    18      1
    19    14    19      1
    20    19    20      1
    21    19    21      1
    22    19    22      1
    23    20    23      1
    24    20    24      1
    25    20    25      1
    26    25    26      1
    27    25    27      1
    28    25    28      1
    29    26    29      1
    30    26    30      1
    31    26    31      1
    32    31    32      1
    33    31    33      1
    34    31    34      1
    35    32    35      1
    36    32    36      1
    37    32    37      1
    38    37    38      1
    39    37    39      1
    40    37    40      1
    41    38    41      1
    42    38    42      1
    43    38    43      1
    44    43    44      1
    45    43    45      1
    46    43    46      1
    47    44    47      1
    48    44    48      1
    49    44    49      1
    50    49    50      1
    51    49    51      1
    52    49    52      1
    53    50    53      1
    54    50    54      1
    55    50    55      1
    56    55    56      1
    57    55    57      1
    58    55    58      1
    59    56    59      1
    60    56    60      1
    61    56    61      1
    62    61    62      1
    63    61    63      1
    64    61    64      1
    65    62    65      1
    66    62    66      1
    67    62    67      1
    68    67    68      1
    69    67    69      1
    70    67    70      1
    71    68    71      1
    72    68    72      1
    73    68    73      1
    74    73    74      1
    75    73    75      1
    76    73    76      1
    77    74    77      1
    78    74    78      1
    79    74    79      1
    80    79    80      1
    81    79    81      1
    82    79    82      1
    83    80    83      1
    84    80    84      1
    85    80    85      1
    86    85    86      1
    87    85    87      1
    88    85    88      1
    89    86    89      1
    90    86    90      1
    91    86    91      1
    92    91    92      1
    93    91    93      1
    94    91    94      1
    95    92    95      1
    96    92    96      1
    97    92    97      1
    98    97    98      1
    99    97    99      1
   100    97   100      1
   101    98   101      1
   102    98   102      1
   103    98   103      1
   104   103   104      1
   105   103   105      1
   106   103   106      1
   107   104   107      1
   108   104   108      1
   109   104   109      1
   110   109   110      1
   111   109   111      1
   112   109   112      1
   113   110   113      1
   114   110   114      1
   115   110   115      1
   116   115   116      1
   117   115   117      1
   118   115   118      1
   119   116   119      1
   120   116   120      1
   121   116   121      1
   122   121   122      1
   123   121   123      1
   124   121   124      1
   125   122   125      1
   126   122   126      1
   127   122   127      1
   128   127   128      1
   129   127   129      1
   130   127   130      1
   131   128   131      1
   132   128   132      1
   133   128   133      1
   134   133   134      1
   135   133   135      1
   136   133   136      1
   137   134   137      1
   138   134   138      1
   139   134   139      1
   140   139   140      1
   141   139   141      1
   142   139   142      1
   143   140   143      1
   144   140   144      1
   145   140   145      1
   146   145   146      1
   147   145   147      1
   148   145   148      1
   149   146   149      1
   150   146   150      1
   151   146   151      1
   152   151   152      1
   153   151   153      1
   154   151   154      1
   155   152   155      1
   156   152   156      1
   157   152   157      1
   158   157   158      1
   159   157   159      1
   160   157   160      1
   161   158   161      1
   162   158   162      1
   163   158   163      1
   164   163   164      1
   165   163   165      1
   166   163   166      1
   167   164   167      1
   168   164   168      1
   169   164   169      1
   170   169   170      1
   171   169   171      1
   172   169   172      1
   173   170   173      1
   174   170   174      1
   175   170   175      1
   176   175   176      1
   177   175   177      1
   178   175   178      1
   179   176   179      1
   180   176   180      1
   181   176   181      1
   182   181   182      1
   183   181   183      1
   184   181   184      1
   185   182   185      1
   186   182   186      1
   187   182   187      1
   188   187   188      1
   189   187   189      1
   190   187   190      1
   191   188   191      1
   192   188   192      1
   193   188   193      1
   194   193   194      1
   195   193   195      1
   196   193   196      1
   197   194   197      1
   198   194   198      1
   199   194   199      1
   200   199   200      1
   201   199   201      1
   202   199   202      1
   203   200   203      1
   204   200   204      1
   205   200   205      1
   206   205   206      1
   207   205   207      1
   208   205   208      1
   209   206   209      1
   210   206   210      1
   211   206   211      1
   212   211   212      1
   213   211   213      1
   214   211   214      1
   215   212   215      1
   216   212   216      1
   217   212   217      1
   218   217   218      1
   219   217   219      1
   220   217   220      1
   221   218   221      1
   222   218   222      1
   223   218   223      1
   224   223   224      1
   225   223   225      1
   226   223   226      1
   227   224   227      1
   228   224   228      1
   229   224   229      1
   230   229   230      1
   231   229   231      1
   232   229   232      1
   233   230   233      1
   234   230   234      1
   235   230   235      1
   236   235   236      1
   237   235   237      1
   238   235   238      1
   239   236   239      1
   240   236   240      1
   241   236   241      1
   242   241   242      1
   243   241   243      1
   244   241   244      1
   245   242   245      1
   246   242   246      1
   247   242   247      1
   248   247   248      1
   249   247   249      1
   250   247   250      1
   251   248   251      1
   252   248   252      1
   253   248   253      1
   254   253   254      1
   255   253   255      1
   256   253   256      1
   257   254   257      1
   258   254   258      1
   259   254   259      1
   260   259   260      1
   261   259   261      1
   262   259   262      1
   263   260   263      1
   264   260   264      1
   265   260   265      1
   266   265   266      1
   267   265   267      1
   268   265   268      1
   269   266   269      1
   270   266   270      1
   271   266   271      1
   272   271   272      1
   273   271   273      1
   274   271   274      1
   275   272   275      1
   276   272   276      1
   277   272   277      1
   278   277   278      1
   279   277   279      1
   280   277   280      1
   281   278   281      1
   282   278   282      1
   283   278   283      1
   284   283   284      1
   285   283   285      1
   286   283   286      1
   287   284   287      1
   288   284   288      1
   289   284   289      H
