###
### Created by PolyChef-cpp17 on Thu Feb 27 19:40:28 2025
###

@<TRIPOS>MOLECULE
NO_INFO
290 289 1 0 0
SMALL
USER_CHARGES


@<TRIPOS>ATOM
      1 C          39.2798   35.8687  -39.3449 C.3       0        0    0.0000
      2 C          37.8706   35.7082  -38.7641 C.3       0        0    0.0000
      3 H          39.9271   35.0566  -38.9913 H         0        0    0.0000
      4 H          39.7280   36.8055  -38.9913 H         0        0    0.0000
      5 H          37.3719   36.6840  -38.7117 H         0        0    0.0000
      6 H          37.2613   35.0781  -39.4239 H         0        0    0.0000
      7 C          37.8874   35.0717  -37.3316 C.3       1        0    0.0000
      8 C          39.1653   35.4153  -36.5583 C.3       1        0    0.0000
      9 H          37.0072   35.4224  -36.7785 H         1        0    0.0000
     10 H          37.7865   33.9835  -37.4269 H         1        0    0.0000
     11 H          40.0457   35.2351  -37.1876 H         1        0    0.0000
     12 H          39.1744   36.4819  -36.3017 H         1        0    0.0000
     13 C          39.3059   34.5774  -35.2409 C.3       2        0    0.0000
     14 C          40.2099   35.2627  -34.2103 C.3       2        0    0.0000
     15 H          38.3072   34.4154  -34.8166 H         2        0    0.0000
     16 H          39.7056   33.5872  -35.4925 H         2        0    0.0000
     17 H          41.2629   35.1375  -34.4913 H         2        0    0.0000
     18 H          40.0137   36.3420  -34.1965 H         2        0    0.0000
     19 C          40.0015   34.6927  -32.7649 C.3       3        0    0.0000
     20 C          40.6256   35.5905  -31.6909 C.3       3        0    0.0000
     21 H          38.9259   34.5788  -32.5814 H         3        0    0.0000
     22 H          40.4379   33.6874  -32.7149 H         3        0    0.0000
     23 H          41.7147   35.6274  -31.8178 H         3        0    0.0000
     24 H          40.2605   36.6191  -31.8018 H         3        0    0.0000
     25 C          40.3025   35.0934  -30.2397 C.3       4        0    0.0000
     26 C          40.9083   36.0034  -29.1656 C.3       4        0    0.0000
     27 H          39.2135   35.0412  -30.1180 H         4        0    0.0000
     28 H          40.6818   34.0705  -30.1237 H         4        0    0.0000
     29 H          41.9981   36.0503  -29.2832 H         4        0    0.0000
     30 H          40.5342   37.0277  -29.2857 H         4        0    0.0000
     31 C          40.5774   35.5115  -27.7144 C.3       5        0    0.0000
     32 C          41.1957   36.4132  -26.6403 C.3       5        0    0.0000
     33 H          39.4877   35.4751  -27.5933 H         5        0    0.0000
     34 H          40.9418   34.4833  -27.5978 H         5        0    0.0000
     35 H          42.2851   36.4525  -26.7637 H         5        0    0.0000
     36 H          40.8284   37.4406  -26.7546 H         5        0    0.0000
     37 C          40.8691   35.9183  -25.1891 C.3       6        0    0.0000
     38 C          41.4183   36.8642  -24.1155 C.3       6        0    0.0000
     39 H          39.7812   35.8221  -25.0848 H         6        0    0.0000
     40 H          41.2885   34.9134  -25.0554 H         6        0    0.0000
     41 H          42.5075   36.9521  -24.2131 H         6        0    0.0000
     42 H          41.0071   37.8715  -24.2556 H         6        0    0.0000
     43 C          41.0788   36.3771  -22.6646 C.3       7        0    0.0000
     44 C          42.2205   36.6484  -21.6788 C.3       7        0    0.0000
     45 H          40.1636   36.8798  -22.3280 H         7        0    0.0000
     46 H          40.8554   35.3035  -22.6953 H         7        0    0.0000
     47 H          43.1685   36.2810  -22.0907 H         7        0    0.0000
     48 H          42.3396   37.7287  -21.5293 H         7        0    0.0000
     49 C          41.9775   35.9695  -20.2869 C.3       8        0    0.0000
     50 C          42.0488   36.9731  -19.1307 C.3       8        0    0.0000
     51 H          40.9963   35.4790  -20.2992 H         8        0    0.0000
     52 H          42.7236   35.1779  -20.1445 H         8        0    0.0000
     53 H          43.0942   37.1449  -18.8457 H         8        0    0.0000
     54 H          41.6455   37.9425  -19.4486 H         8        0    0.0000
     55 C          41.2552   36.4846  -17.8701 C.3       9        0    0.0000
     56 C          42.0915   36.5689  -16.5886 C.3       9        0    0.0000
     57 H          40.3469   37.0912  -17.7671 H         9        0    0.0000
     58 H          40.9267   35.4513  -18.0376 H         9        0    0.0000
     59 H          43.1005   36.1788  -16.7715 H         9        0    0.0000
     60 H          42.2091   37.6163  -16.2843 H         9        0    0.0000
     61 C          41.4472   35.7682  -15.4049 C.3      10        0    0.0000
     62 C          41.8225   36.3502  -14.0376 C.3      10        0    0.0000
     63 H          40.3571   35.7706  -15.5284 H        10        0    0.0000
     64 H          41.7692   34.7214  -15.4693 H        10        0    0.0000
     65 H          42.8987   36.2319  -13.8610 H        10        0    0.0000
     66 H          41.6165   37.4276  -14.0180 H        10        0    0.0000
     67 C          41.0397   35.6648  -12.8650 C.3      11        0    0.0000
     68 C          41.5392   36.1195  -11.4892 C.3      11        0    0.0000
     69 H          39.9719   35.8929  -12.9718 H        11        0    0.0000
     70 H          41.1405   34.5766  -12.9611 H        11        0    0.0000
     71 H          42.6146   35.9236  -11.3959 H        11        0    0.0000
     72 H          41.4056   37.2028  -11.3797 H        11        0    0.0000
     73 C          40.7904   35.3969  -10.3167 C.3      12        0    0.0000
     74 C          41.2805   35.8616   -8.9409 C.3      12        0    0.0000
     75 H          39.7141   35.5846  -10.4157 H        12        0    0.0000
     76 H          40.9323   34.3141  -10.4206 H        12        0    0.0000
     77 H          42.3564   35.6719   -8.8410 H        12        0    0.0000
     78 H          41.1406   36.9448   -8.8378 H        12        0    0.0000
     79 C          40.5295   35.1413   -7.7684 C.3      13        0    0.0000
     80 C          41.0278   35.5973   -6.3926 C.3      13        0    0.0000
     81 H          39.4545   35.3381   -7.8633 H        13        0    0.0000
     82 H          40.6622   34.0577   -7.8763 H        13        0    0.0000
     83 H          42.1052   35.4115   -6.3021 H        13        0    0.0000
     84 H          40.8841   36.6791   -6.2800 H        13        0    0.0000
     85 C          40.2886   34.8647   -5.2202 C.3      14        0    0.0000
     86 C          40.8400   35.2632   -3.8468 C.3      14        0    0.0000
     87 H          39.2179   35.0968   -5.2775 H        14        0    0.0000
     88 H          40.3842   33.7813   -5.3641 H        14        0    0.0000
     89 H          41.9218   35.0846   -3.8096 H        14        0    0.0000
     90 H          40.6921   36.3372   -3.6793 H        14        0    0.0000
     91 C          40.1567   34.4708   -2.6796 C.3      15        0    0.0000
     92 C          40.5822   34.9863   -1.3004 C.3      15        0    0.0000
     93 H          39.0679   34.5472   -2.7902 H        15        0    0.0000
     94 H          40.4095   33.4078   -2.7783 H        15        0    0.0000
     95 H          41.6200   34.6963   -1.0942 H        15        0    0.0000
     96 H          40.5522   36.0828   -1.2829 H        15        0    0.0000
     97 C          39.6666   34.4374   -0.1524 C.3      16        0    0.0000
     98 C          39.9151   35.1519    1.1806 C.3      16        0    0.0000
     99 H          38.6173   34.5529   -0.4513 H        16        0    0.0000
    100 H          39.8458   33.3608   -0.0413 H        16        0    0.0000
    101 H          40.8452   34.7881    1.6346 H        16        0    0.0000
    102 H          40.0466   36.2278    1.0119 H        16        0    0.0000
    103 C          38.7401   34.9396    2.1964 C.3      17        0    0.0000
    104 C          38.9754   35.6774    3.5190 C.3      17        0    0.0000
    105 H          37.8067   35.2841    1.7344 H        17        0    0.0000
    106 H          38.6222   33.8647    2.3811 H        17        0    0.0000
    107 H          39.6488   35.0950    4.1600 H        17        0    0.0000
    108 H          39.4716   36.6376    3.3310 H        17        0    0.0000
    109 C          37.6406   35.9423    4.2972 C.3      18        0    0.0000
    110 C          37.8754   36.6839    5.6178 C.3      18        0    0.0000
    111 H          36.9660   36.5221    3.6550 H        18        0    0.0000
    112 H          37.1459   34.9819    4.4879 H        18        0    0.0000
    113 H          37.9155   35.9688    6.4488 H        18        0    0.0000
    114 H          38.8459   37.1949    5.5948 H        18        0    0.0000
    115 C          36.7552   37.7399    5.9135 C.3      19        0    0.0000
    116 C          36.9940   38.4866    7.2305 C.3      19        0    0.0000
    117 H          36.7115   38.4518    5.0800 H        19        0    0.0000
    118 H          35.7853   37.2280    5.9418 H        19        0    0.0000
    119 H          36.8420   37.8092    8.0799 H        19        0    0.0000
    120 H          38.0342   38.8311    7.2844 H        19        0    0.0000
    121 C          36.0435   39.7225    7.3934 C.3      20        0    0.0000
    122 C          36.2917   40.4774    8.7040 C.3      20        0    0.0000
    123 H          36.1881   40.3950    6.5388 H        20        0    0.0000
    124 H          35.0033   39.3767    7.3498 H        20        0    0.0000
    125 H          36.0520   39.8342    9.5598 H        20        0    0.0000
    126 H          37.3538   40.7373    8.7930 H        20        0    0.0000
    127 C          35.4403   41.7899    8.8041 C.3      21        0    0.0000
    128 C          35.7361   42.5779   10.0849 C.3      21        0    0.0000
    129 H          35.6449   42.4120    7.9239 H        21        0    0.0000
    130 H          34.3765   41.5252    8.7625 H        21        0    0.0000
    131 H          35.4788   41.9756   10.9650 H        21        0    0.0000
    132 H          36.8094   42.7942   10.1541 H        21        0    0.0000
    133 C          34.9434   43.9288   10.1478 C.3      22        0    0.0000
    134 C          35.8249   45.0993   10.5971 C.3      22        0    0.0000
    135 H          34.5189   44.1361    9.1576 H        22        0    0.0000
    136 H          34.0965   43.8102   10.8350 H        22        0    0.0000
    137 H          35.9843   45.0554   11.6817 H        22        0    0.0000
    138 H          36.8148   45.0256   10.1300 H        22        0    0.0000
    139 C          35.1973   46.4892   10.2345 C.3      23        0    0.0000
    140 C          34.8406   47.3082   11.4799 C.3      23        0    0.0000
    141 H          35.9067   47.0452    9.6091 H        23        0    0.0000
    142 H          34.3011   46.3239    9.6236 H        23        0    0.0000
    143 H          34.7520   46.6480   12.3516 H        23        0    0.0000
    144 H          35.6442   48.0205   11.7046 H        23        0    0.0000
    145 C          33.4982   48.0990   11.3066 C.3      24        0    0.0000
    146 C          33.7215   49.5051   10.7391 C.3      24        0    0.0000
    147 H          32.8341   47.5278   10.6461 H        24        0    0.0000
    148 H          32.9965   48.1616   12.2802 H        24        0    0.0000
    149 H          33.0901   50.2292   11.2688 H        24        0    0.0000
    150 H          34.7611   49.8155   10.9014 H        24        0    0.0000
    151 C          33.4041   49.5843    9.2060 C.3      25        0    0.0000
    152 C          32.5964   50.8355    8.8439 C.3      25        0    0.0000
    153 H          34.3487   49.5718    8.6482 H        25        0    0.0000
    154 H          32.8528   48.6825    8.9120 H        25        0    0.0000
    155 H          31.8968   51.0788    9.6532 H        25        0    0.0000
    156 H          33.2662   51.6976    8.7366 H        25        0    0.0000
    157 C          31.7871   50.6557    7.5134 C.3      26        0    0.0000
    158 C          31.8983   51.8786    6.5962 C.3      26        0    0.0000
    159 H          32.1541   49.7616    6.9943 H        26        0    0.0000
    160 H          30.7355   50.4663    7.7620 H        26        0    0.0000
    161 H          31.3032   52.7071    7.0001 H        26        0    0.0000
    162 H          32.9379   52.2269    6.5579 H        26        0    0.0000
    163 C          31.4137   51.5729    5.1370 C.3      27        0    0.0000
    164 C          31.4042   52.8254    4.2537 C.3      27        0    0.0000
    165 H          32.0687   50.8091    4.6997 H        27        0    0.0000
    166 H          30.4080   51.1369    5.1824 H        27        0    0.0000
    167 H          30.7627   53.5954    4.6999 H        27        0    0.0000
    168 H          32.4133   53.2516    4.1945 H        27        0    0.0000
    169 C          30.8968   52.5243    2.8014 C.3      28        0    0.0000
    170 C          31.0761   53.7230    1.8633 C.3      28        0    0.0000
    171 H          31.4405   51.6556    2.4098 H        28        0    0.0000
    172 H          29.8387   52.2385    2.8486 H        28        0    0.0000
    173 H          30.4922   54.5770    2.2284 H        28        0    0.0000
    174 H          32.1263   54.0400    1.8545 H        28        0    0.0000
    175 C          30.6338   53.3993    0.3946 C.3      29        0    0.0000
    176 C          31.4542   54.1734   -0.6431 C.3      29        0    0.0000
    177 H          30.7343   52.3202    0.2247 H        29        0    0.0000
    178 H          29.5684   53.6375    0.2855 H        29        0    0.0000
    179 H          31.2204   55.2437   -0.5851 H        29        0    0.0000
    180 H          32.5251   54.0727   -0.4271 H        29        0    0.0000
    181 C          31.1846   53.6758   -2.1050 C.3      30        0    0.0000
    182 C          31.0419   54.8359   -3.0964 C.3      30        0    0.0000
    183 H          32.0070   53.0177   -2.4118 H        30        0    0.0000
    184 H          30.2738   53.0643   -2.1080 H        30        0    0.0000
    185 H          30.3743   55.6028   -2.6845 H        30        0    0.0000
    186 H          32.0150   55.3173   -3.2546 H        30        0    0.0000
    187 C          30.4788   54.3672   -4.4822 C.3      31        0    0.0000
    188 C          31.4244   54.7089   -5.6391 C.3      31        0    0.0000
    189 H          30.3052   53.2846   -4.4456 H        31        0    0.0000
    190 H          29.5011   54.8378   -4.6441 H        31        0    0.0000
    191 H          31.2513   55.7389   -5.9746 H        31        0    0.0000
    192 H          32.4666   54.6588   -5.3003 H        31        0    0.0000
    193 C          31.2429   53.7425   -6.8600 C.3      32        0    0.0000
    194 C          31.1077   54.5001   -8.1854 C.3      32        0    0.0000
    195 H          32.1016   53.0610   -6.9021 H        32        0    0.0000
    196 H          30.3552   53.1207   -6.6899 H        32        0    0.0000
    197 H          30.4175   55.3447   -8.0672 H        32        0    0.0000
    198 H          32.0768   54.9236   -8.4771 H        32        0    0.0000
    199 C          30.5882   53.5815   -9.3445 C.3      33        0    0.0000
    200 C          30.9200   54.1493  -10.7289 C.3      33        0    0.0000
    201 H          31.0312   52.5843   -9.2309 H        33        0    0.0000
    202 H          29.5032   53.4581   -9.2387 H        33        0    0.0000
    203 H          30.3971   55.1019  -10.8799 H        33        0    0.0000
    204 H          31.9935   54.3645  -10.7998 H        33        0    0.0000
    205 C          30.5243   53.1668  -11.8845 C.3      34        0    0.0000
    206 C          30.7785   53.7685  -13.2710 C.3      34        0    0.0000
    207 H          31.0936   52.2364  -11.7681 H        34        0    0.0000
    208 H          29.4647   52.9034  -11.7773 H        34        0    0.0000
    209 H          30.2229   54.7080  -13.3810 H        34        0    0.0000
    210 H          31.8412   54.0159  -13.3846 H        34        0    0.0000
    211 C          30.3598   52.7956  -14.4267 C.3      35        0    0.0000
    212 C          30.6156   53.3966  -15.8132 C.3      35        0    0.0000
    213 H          30.9145   51.8556  -14.3160 H        35        0    0.0000
    214 H          29.2968   52.5492  -14.3138 H        35        0    0.0000
    215 H          30.0584   54.3350  -15.9250 H        35        0    0.0000
    216 H          31.6781   53.6459  -15.9250 H        35        0    0.0000
    217 C          30.2009   52.4220  -16.9689 C.3      36        0    0.0000
    218 C          30.4529   53.0246  -18.3554 C.3      36        0    0.0000
    219 H          30.7603   51.4847  -16.8588 H        36        0    0.0000
    220 H          29.1391   52.1704  -16.8554 H        36        0    0.0000
    221 H          29.8927   53.9613  -18.4660 H        36        0    0.0000
    222 H          31.5145   53.2772  -18.4685 H        36        0    0.0000
    223 C          30.0398   52.0493  -19.5111 C.3      37        0    0.0000
    224 C          30.2922   52.6517  -20.8976 C.3      37        0    0.0000
    225 H          30.5999   51.1125  -19.4004 H        37        0    0.0000
    226 H          28.9782   51.7968  -19.3982 H        37        0    0.0000
    227 H          29.7317   53.5883  -21.0085 H        37        0    0.0000
    228 H          31.3537   52.9047  -21.0103 H        37        0    0.0000
    229 C          29.8797   51.6762  -22.0533 C.3      38        0    0.0000
    230 C          30.1335   52.2780  -23.4398 C.3      38        0    0.0000
    231 H          30.4394   50.7392  -21.9417 H        38        0    0.0000
    232 H          28.8179   51.4241  -21.9412 H        38        0    0.0000
    233 H          29.5708   53.2130  -23.5528 H        38        0    0.0000
    234 H          31.1946   52.5337  -23.5504 H        38        0    0.0000
    235 C          29.7262   51.3003  -24.5955 C.3      39        0    0.0000
    236 C          29.9766   51.9035  -25.9820 C.3      39        0    0.0000
    237 H          30.2908   50.3663  -24.4840 H        39        0    0.0000
    238 H          28.6657   51.0426  -24.4833 H        39        0    0.0000
    239 H          29.4127   52.8379  -26.0932 H        39        0    0.0000
    240 H          31.0372   52.1604  -26.0944 H        39        0    0.0000
    241 C          29.5681   50.9263  -27.1377 C.3      40        0    0.0000
    242 C          29.8192   51.5293  -28.5242 C.3      40        0    0.0000
    243 H          30.1318   49.9917  -27.0263 H        40        0    0.0000
    244 H          28.5074   50.6697  -27.0255 H        40        0    0.0000
    245 H          29.2515   52.4611  -28.6375 H        40        0    0.0000
    246 H          30.8789   51.7906  -28.6345 H        40        0    0.0000
    247 C          29.4176   50.5492  -29.6799 C.3      41        0    0.0000
    248 C          29.6677   51.1526  -31.0664 C.3      41        0    0.0000
    249 H          29.9859   49.6176  -29.5670 H        41        0    0.0000
    250 H          28.3580   50.2872  -29.5692 H        41        0    0.0000
    251 H          29.1168   52.0955  -31.1712 H        41        0    0.0000
    252 H          30.7312   51.3942  -31.1852 H        41        0    0.0000
    253 C          29.2372   50.1847  -32.2220 C.3      42        0    0.0000
    254 C          29.4912   50.7864  -33.6085 C.3      42        0    0.0000
    255 H          29.7859   49.2407  -32.1153 H        42        0    0.0000
    256 H          28.1730   49.9455  -32.1049 H        42        0    0.0000
    257 H          29.3309   50.0265  -34.3834 H        42        0    0.0000
    258 H          28.7744   51.5932  -33.8054 H        42        0    0.0000
    259 C          30.9447   51.3556  -33.7520 C.3      43        0    0.0000
    260 C          31.1663   52.0497  -35.1004 C.3      43        0    0.0000
    261 H          31.1315   52.0594  -32.9314 H        43        0    0.0000
    262 H          31.6602   50.5329  -33.6304 H        43        0    0.0000
    263 H          31.3322   53.1234  -34.9480 H        43        0    0.0000
    264 H          32.0701   51.6564  -35.5819 H        43        0    0.0000
    265 C          29.9519   51.8592  -36.0732 C.3      44        0    0.0000
    266 C          30.3358   52.1050  -37.5365 C.3      44        0    0.0000
    267 H          29.5588   50.8421  -35.9532 H        44        0    0.0000
    268 H          29.1488   52.5445  -35.7748 H        44        0    0.0000
    269 H          30.4721   53.1790  -37.7143 H        44        0    0.0000
    270 H          31.2964   51.6244  -37.7592 H        44        0    0.0000
    271 C          29.2554   51.5609  -38.5336 C.3      45        0    0.0000
    272 C          29.6467   51.7926  -39.9972 C.3      45        0    0.0000
    273 H          29.1106   50.4894  -38.3480 H        45        0    0.0000
    274 H          28.2973   52.0501  -38.3184 H        45        0    0.0000
    275 H          28.9495   51.2662  -40.6609 H        45        0    0.0000
    276 H          29.5706   52.8592  -40.2426 H        45        0    0.0000
    277 C          31.1042   51.3056  -40.3067 C.3      46        0    0.0000
    278 C          31.6056   51.8014  -41.6676 C.3      46        0    0.0000
    279 H          31.7711   51.6567  -39.5095 H        46        0    0.0000
    280 H          31.1250   50.2092  -40.2748 H        46        0    0.0000
    281 H          32.3027   52.6372  -41.5299 H        46        0    0.0000
    282 H          32.1644   51.0054  -42.1753 H        46        0    0.0000
    283 C          30.4338   52.2688  -42.5981 C.3      47        0    0.0000
    284 C          30.9395   52.8280  -43.9325 C.3      47        0    0.0000
    285 H          29.7633   51.4189  -42.7763 H        47        0    0.0000
    286 H          29.8451   53.0293  -42.0705 H        47        0    0.0000
    287 H          31.6100   53.6778  -43.7544 H        47        0    0.0000
    288 H          31.5282   52.0674  -44.4602 H        47        0    0.0000
    289 H          30.1247   53.1530  -44.5796 H        47        0    0.0000
    290 H          39.2798   35.8687  -40.4349 H         0        0    0.0000
@<TRIPOS>BOND
     1     1     2      1
     2     1     3      1
     3     1     4      1
     4     1   290      H
     5     2     5      1
     6     2     6      1
     7     2     7      1
     8     7     8      1
     9     7     9      1
    10     7    10      1
    11     8    11      1
    12     8    12      1
    13     8    13      1
    14    13    14      1
    15    13    15      1
    16    13    16      1
    17    14    17      1
    18    14    18      1
    19    14    19      1
    20    19    20      1
    21    19    21      1
    22    19    22      1
    23    20    23      1
    24    20    24      1
    25    20    25      1
    26    25    26      1
    27    25    27      1
    28    25    28      1
    29    26    29      1
    30    26    30      1
    31    26    31      1
    32    31    32      1
    33    31    33      1
    34    31    34      1
    35    32    35      1
    36    32    36      1
    37    32    37      1
    38    37    38      1
    39    37    39      1
    40    37    40      1
    41    38    41      1
    42    38    42      1
    43    38    43      1
    44    43    44      1
    45    43    45      1
    46    43    46      1
    47    44    47      1
    48    44    48      1
    49    44    49      1
    50    49    50      1
    51    49    51      1
    52    49    52      1
    53    50    53      1
    54    50    54      1
    55    50    55      1
    56    55    56      1
    57    55    57      1
    58    55    58      1
    59    56    59      1
    60    56    60      1
    61    56    61      1
    62    61    62      1
    63    61    63      1
    64    61    64      1
    65    62    65      1
    66    62    66      1
    67    62    67      1
    68    67    68      1
    69    67    69      1
    70    67    70      1
    71    68    71      1
    72    68    72      1
    73    68    73      1
    74    73    74      1
    75    73    75      1
    76    73    76      1
    77    74    77      1
    78    74    78      1
    79    74    79      1
    80    79    80      1
    81    79    81      1
    82    79    82      1
    83    80    83      1
    84    80    84      1
    85    80    85      1
    86    85    86      1
    87    85    87      1
    88    85    88      1
    89    86    89      1
    90    86    90      1
    91    86    91      1
    92    91    92      1
    93    91    93      1
    94    91    94      1
    95    92    95      1
    96    92    96      1
    97    92    97      1
    98    97    98      1
    99    97    99      1
   100    97   100      1
   101    98   101      1
   102    98   102      1
   103    98   103      1
   104   103   104      1
   105   103   105      1
   106   103   106      1
   107   104   107      1
   108   104   108      1
   109   104   109      1
   110   109   110      1
   111   109   111      1
   112   109   112      1
   113   110   113      1
   114   110   114      1
   115   110   115      1
   116   115   116      1
   117   115   117      1
   118   115   118      1
   119   116   119      1
   120   116   120      1
   121   116   121      1
   122   121   122      1
   123   121   123      1
   124   121   124      1
   125   122   125      1
   126   122   126      1
   127   122   127      1
   128   127   128      1
   129   127   129      1
   130   127   130      1
   131   128   131      1
   132   128   132      1
   133   128   133      1
   134   133   134      1
   135   133   135      1
   136   133   136      1
   137   134   137      1
   138   134   138      1
   139   134   139      1
   140   139   140      1
   141   139   141      1
   142   139   142      1
   143   140   143      1
   144   140   144      1
   145   140   145      1
   146   145   146      1
   147   145   147      1
   148   145   148      1
   149   146   149      1
   150   146   150      1
   151   146   151      1
   152   151   152      1
   153   151   153      1
   154   151   154      1
   155   152   155      1
   156   152   156      1
   157   152   157      1
   158   157   158      1
   159   157   159      1
   160   157   160      1
   161   158   161      1
   162   158   162      1
   163   158   163      1
   164   163   164      1
   165   163   165      1
   166   163   166      1
   167   164   167      1
   168   164   168      1
   169   164   169      1
   170   169   170      1
   171   169   171      1
   172   169   172      1
   173   170   173      1
   174   170   174      1
   175   170   175      1
   176   175   176      1
   177   175   177      1
   178   175   178      1
   179   176   179      1
   180   176   180      1
   181   176   181      1
   182   181   182      1
   183   181   183      1
   184   181   184      1
   185   182   185      1
   186   182   186      1
   187   182   187      1
   188   187   188      1
   189   187   189      1
   190   187   190      1
   191   188   191      1
   192   188   192      1
   193   188   193      1
   194   193   194      1
   195   193   195      1
   196   193   196      1
   197   194   197      1
   198   194   198      1
   199   194   199      1
   200   199   200      1
   201   199   201      1
   202   199   202      1
   203   200   203      1
   204   200   204      1
   205   200   205      1
   206   205   206      1
   207   205   207      1
   208   205   208      1
   209   206   209      1
   210   206   210      1
   211   206   211      1
   212   211   212      1
   213   211   213      1
   214   211   214      1
   215   212   215      1
   216   212   216      1
   217   212   217      1
   218   217   218      1
   219   217   219      1
   220   217   220      1
   221   218   221      1
   222   218   222      1
   223   218   223      1
   224   223   224      1
   225   223   225      1
   226   223   226      1
   227   224   227      1
   228   224   228      1
   229   224   229      1
   230   229   230      1
   231   229   231      1
   232   229   232      1
   233   230   233      1
   234   230   234      1
   235   230   235      1
   236   235   236      1
   237   235   237      1
   238   235   238      1
   239   236   239      1
   240   236   240      1
   241   236   241      1
   242   241   242      1
   243   241   243      1
   244   241   244      1
   245   242   245      1
   246   242   246      1
   247   242   247      1
   248   247   248      1
   249   247   249      1
   250   247   250      1
   251   248   251      1
   252   248   252      1
   253   248   253      1
   254   253   254      1
   255   253   255      1
   256   253   256      1
   257   254   257      1
   258   254   258      1
   259   254   259      1
   260   259   260      1
   261   259   261      1
   262   259   262      1
   263   260   263      1
   264   260   264      1
   265   260   265      1
   266   265   266      1
   267   265   267      1
   268   265   268      1
   269   266   269      1
   270   266   270      1
   271   266   271      1
   272   271   272      1
   273   271   273      1
   274   271   274      1
   275   272   275      1
   276   272   276      1
   277   272   277      1
   278   277   278      1
   279   277   279      1
   280   277   280      1
   281   278   281      1
   282   278   282      1
   283   278   283      1
   284   283   284      1
   285   283   285      1
   286   283   286      1
   287   284   287      1
   288   284   288      1
   289   284   289      H
