###
### Created by PolyChef-cpp17 on Thu Feb 27 19:40:30 2025
###

@<TRIPOS>MOLECULE
NO_INFO
458 457 1 0 0
SMALL
USER_CHARGES


@<TRIPOS>ATOM
      1 C          49.2798  191.7487  -39.3449 C.3       0        0    0.0000
      2 C          47.8706  191.5882  -38.7641 C.3       0        0    0.0000
      3 H          49.9271  190.9366  -38.9914 H         0        0    0.0000
      4 H          49.7280  192.6855  -38.9913 H         0        0    0.0000
      5 H          47.3724  192.5642  -38.7105 H         0        0    0.0000
      6 H          47.2609  190.9592  -39.4245 H         0        0    0.0000
      7 C          47.8872  190.9501  -37.3323 C.3       1        0    0.0000
      8 C          49.1649  191.2931  -36.5583 C.3       1        0    0.0000
      9 H          47.0069  191.2998  -36.7790 H         1        0    0.0000
     10 H          47.7867  189.8619  -37.4290 H         1        0    0.0000
     11 H          50.0455  191.1135  -37.1875 H         1        0    0.0000
     12 H          49.1738  192.3595  -36.3009 H         1        0    0.0000
     13 C          49.3051  190.4542  -35.2415 C.3       2        0    0.0000
     14 C          50.2091  191.1386  -34.2103 C.3       2        0    0.0000
     15 H          48.3063  190.2922  -34.8175 H         2        0    0.0000
     16 H          49.7047  189.4642  -35.4938 H         2        0    0.0000
     17 H          51.2622  191.0108  -34.4896 H         2        0    0.0000
     18 H          50.0153  192.2184  -34.1980 H         2        0    0.0000
     19 C          49.9971  190.5707  -32.7646 C.3       3        0    0.0000
     20 C          50.6264  191.4655  -31.6910 C.3       3        0    0.0000
     21 H          48.9209  190.4632  -32.5812 H         3        0    0.0000
     22 H          50.4275  189.5629  -32.7139 H         3        0    0.0000
     23 H          51.7154  191.4979  -31.8193 H         3        0    0.0000
     24 H          50.2654  192.4956  -31.8010 H         3        0    0.0000
     25 C          50.3032  190.9690  -30.2396 C.3       4        0    0.0000
     26 C          50.9087  191.8798  -29.1659 C.3       4        0    0.0000
     27 H          49.2141  190.9168  -30.1181 H         4        0    0.0000
     28 H          50.6826  189.9463  -30.1230 H         4        0    0.0000
     29 H          51.9983  191.9276  -29.2840 H         4        0    0.0000
     30 H          50.5336  192.9037  -29.2860 H         4        0    0.0000
     31 C          50.5788  191.3878  -27.7145 C.3       5        0    0.0000
     32 C          51.1902  192.2946  -26.6408 C.3       5        0    0.0000
     33 H          49.4891  191.3449  -27.5948 H         5        0    0.0000
     34 H          50.9493  190.3620  -27.5961 H         5        0    0.0000
     35 H          52.2796  192.3395  -26.7621 H         5        0    0.0000
     36 H          50.8177  193.3198  -26.7576 H         5        0    0.0000
     37 C          50.8634  191.8005  -25.1894 C.3       6        0    0.0000
     38 C          51.4291  192.7369  -24.1159 C.3       6        0    0.0000
     39 H          49.7749  191.7178  -25.0807 H         6        0    0.0000
     40 H          51.2707  190.7901  -25.0597 H         6        0    0.0000
     41 H          52.5185  192.8138  -24.2199 H         6        0    0.0000
     42 H          51.0276  193.7490  -24.2501 H         6        0    0.0000
     43 C          51.0933  192.2484  -22.6647 C.3       7        0    0.0000
     44 C          52.2339  192.5270  -21.6796 C.3       7        0    0.0000
     45 H          50.1754  192.7457  -22.3277 H         7        0    0.0000
     46 H          50.8764  191.1734  -22.6947 H         7        0    0.0000
     47 H          53.1831  192.1601  -22.0895 H         7        0    0.0000
     48 H          52.3503  193.6082  -21.5348 H         7        0    0.0000
     49 C          51.9921  191.8536  -20.2847 C.3       8        0    0.0000
     50 C          52.0666  192.8615  -19.1325 C.3       8        0    0.0000
     51 H          51.0101  191.3645  -20.2937 H         8        0    0.0000
     52 H          52.7373  191.0616  -20.1405 H         8        0    0.0000
     53 H          53.1123  193.0296  -18.8468 H         8        0    0.0000
     54 H          51.6682  193.8315  -19.4548 H         8        0    0.0000
     55 C          51.2690  192.3817  -17.8710 C.3       9        0    0.0000
     56 C          52.1109  192.4475  -16.5919 C.3       9        0    0.0000
     57 H          50.3713  193.0030  -17.7629 H         9        0    0.0000
     58 H          50.9228  191.3547  -18.0411 H         9        0    0.0000
     59 H          53.1152  192.0490  -16.7817 H         9        0    0.0000
     60 H          52.2399  193.4913  -16.2798 H         9        0    0.0000
     61 C          51.4629  191.6437  -15.4123 C.3      10        0    0.0000
     62 C          51.8316  192.2241  -14.0425 C.3      10        0    0.0000
     63 H          50.3734  191.6445  -15.5403 H        10        0    0.0000
     64 H          51.7870  190.5976  -15.4772 H        10        0    0.0000
     65 H          52.9070  192.1059  -13.8610 H        10        0    0.0000
     66 H          51.6252  193.3014  -14.0225 H        10        0    0.0000
     67 C          51.0435  191.5368  -12.8745 C.3      11        0    0.0000
     68 C          51.5338  191.9929  -11.4958 C.3      11        0    0.0000
     69 H          49.9759  191.7623  -12.9876 H        11        0    0.0000
     70 H          51.1476  190.4489  -12.9698 H        11        0    0.0000
     71 H          52.6095  191.8015  -11.3968 H        11        0    0.0000
     72 H          51.3951  193.0756  -11.3865 H        11        0    0.0000
     73 C          50.7817  191.2666  -10.3277 C.3      12        0    0.0000
     74 C          51.2625  191.7324   -8.9490 C.3      12        0    0.0000
     75 H          49.7052  191.4498  -10.4324 H        12        0    0.0000
     76 H          50.9287  190.1844  -10.4315 H        12        0    0.0000
     77 H          52.3388  191.5476   -8.8437 H        12        0    0.0000
     78 H          51.1172  192.8149   -8.8460 H        12        0    0.0000
     79 C          50.5088  191.0080   -7.7809 C.3      13        0    0.0000
     80 C          50.9905  191.4728   -6.4022 C.3      13        0    0.0000
     81 H          49.4326  191.1936   -7.8857 H        13        0    0.0000
     82 H          50.6532  189.9254   -7.8846 H        13        0    0.0000
     83 H          52.0669  191.2884   -6.2980 H        13        0    0.0000
     84 H          50.8448  192.5552   -6.2981 H        13        0    0.0000
     85 C          50.2381  190.7470   -5.2341 C.3      14        0    0.0000
     86 C          50.7191  191.2125   -3.8554 C.3      14        0    0.0000
     87 H          49.1616  190.9308   -5.3388 H        14        0    0.0000
     88 H          50.3844  189.6647   -5.3379 H        14        0    0.0000
     89 H          51.7966  191.0333   -3.7527 H        14        0    0.0000
     90 H          50.5682  192.2940   -3.7498 H        14        0    0.0000
     91 C          49.9716  190.4816   -2.6873 C.3      15        0    0.0000
     92 C          50.4541  190.9457   -1.3086 C.3      15        0    0.0000
     93 H          48.8943  190.6620   -2.7893 H        15        0    0.0000
     94 H          50.1213  189.4000   -2.7938 H        15        0    0.0000
     95 H          51.5285  190.7516   -1.2011 H        15        0    0.0000
     96 H          50.3182  192.0297   -1.2078 H        15        0    0.0000
     97 C          49.6919  190.2301   -0.1405 C.3      16        0    0.0000
     98 C          50.0713  190.7951    1.2327 C.3      16        0    0.0000
     99 H          48.6125  190.3357   -0.3056 H        16        0    0.0000
    100 H          49.9130  189.1562   -0.1796 H        16        0    0.0000
    101 H          51.0756  190.4557    1.5148 H        16        0    0.0000
    102 H          50.1091  191.8908    1.1913 H        16        0    0.0000
    103 C          49.0603  190.3664    2.3515 C.3      17        0    0.0000
    104 C          49.4740  190.8787    3.7355 C.3      17        0    0.0000
    105 H          48.0641  190.7459    2.0922 H        17        0    0.0000
    106 H          48.9876  189.2718    2.3618 H        17        0    0.0000
    107 H          50.4753  190.5096    3.9894 H        17        0    0.0000
    108 H          49.5344  191.9741    3.7285 H        17        0    0.0000
    109 C          48.4725  190.4350    4.8569 C.3      18        0    0.0000
    110 C          48.3065  191.5033    5.9433 C.3      18        0    0.0000
    111 H          47.5019  190.2128    4.3965 H        18        0    0.0000
    112 H          48.8319  189.4988    5.3018 H        18        0    0.0000
    113 H          49.2359  191.6034    6.5176 H        18        0    0.0000
    114 H          48.1135  192.4805    5.4835 H        18        0    0.0000
    115 C          47.1357  191.1695    6.9309 C.3      19        0    0.0000
    116 C          47.5993  191.1364    8.3913 C.3      19        0    0.0000
    117 H          46.3427  191.9170    6.8047 H        19        0    0.0000
    118 H          46.7029  190.2009    6.6516 H        19        0    0.0000
    119 H          48.6563  190.8472    8.4440 H        19        0    0.0000
    120 H          47.5244  192.1381    8.8325 H        19        0    0.0000
    121 C          46.7584  190.1379    9.2592 C.3      20        0    0.0000
    122 C          45.8765  190.8595   10.2841 C.3      20        0    0.0000
    123 H          46.1373  189.5266    8.5927 H        20        0    0.0000
    124 H          47.4434  189.4501    9.7703 H        20        0    0.0000
    125 H          46.4526  191.0709   11.1935 H        20        0    0.0000
    126 H          45.5513  191.8282    9.8848 H        20        0    0.0000
    127 C          44.6095  190.0218   10.6721 C.3      21        0    0.0000
    128 C          44.3062  190.0885   12.1729 C.3      21        0    0.0000
    129 H          43.7512  190.3924   10.0981 H        21        0    0.0000
    130 H          44.7670  188.9801   10.3661 H        21        0    0.0000
    131 H          45.2253  189.9276   12.7499 H        21        0    0.0000
    132 H          43.9385  191.0875   12.4384 H        21        0    0.0000
    133 C          43.2414  189.0250   12.6118 C.3      22        0    0.0000
    134 C          42.7937  189.2168   14.0650 C.3      22        0    0.0000
    135 H          42.3768  189.0922   11.9398 H        22        0    0.0000
    136 H          43.6669  188.0227   12.4784 H        22        0    0.0000
    137 H          43.6508  189.1049   14.7405 H        22        0    0.0000
    138 H          42.4096  190.2342   14.2092 H        22        0    0.0000
    139 C          41.6829  188.1932   14.4844 C.3      23        0    0.0000
    140 C          41.2352  188.3849   15.9376 C.3      23        0    0.0000
    141 H          40.8257  188.3051   13.8089 H        23        0    0.0000
    142 H          42.0669  187.1758   14.3402 H        23        0    0.0000
    143 H          42.0923  188.2728   16.6132 H        23        0    0.0000
    144 H          40.8513  189.4024   16.0819 H        23        0    0.0000
    145 C          40.1242  187.3614   16.3570 C.3      24        0    0.0000
    146 C          39.6760  187.5536   17.8100 C.3      24        0    0.0000
    147 H          39.2674  187.4731   15.6811 H        24        0    0.0000
    148 H          40.5084  186.3439   16.2133 H        24        0    0.0000
    149 H          40.5331  187.4430   18.4858 H        24        0    0.0000
    150 H          39.2909  188.5708   17.9534 H        24        0    0.0000
    151 C          38.5661  186.5292   18.2297 C.3      25        0    0.0000
    152 C          38.1183  186.7211   19.6829 C.3      25        0    0.0000
    153 H          37.7089  186.6400   17.5542 H        25        0    0.0000
    154 H          38.9512  185.5120   18.0860 H        25        0    0.0000
    155 H          38.9754  186.6098   20.3585 H        25        0    0.0000
    156 H          37.7337  187.7384   19.8268 H        25        0    0.0000
    157 C          37.0079  185.6971   20.1025 C.3      26        0    0.0000
    158 C          36.5604  185.8886   21.5558 C.3      26        0    0.0000
    159 H          36.1506  185.8086   19.4271 H        26        0    0.0000
    160 H          37.3923  184.6798   19.9582 H        26        0    0.0000
    161 H          37.4177  185.7772   22.2312 H        26        0    0.0000
    162 H          36.1759  186.9059   21.7000 H        26        0    0.0000
    163 C          35.4501  184.8646   21.9754 C.3      27        0    0.0000
    164 C          35.0020  185.0567   23.4284 C.3      27        0    0.0000
    165 H          34.5931  184.9756   21.2996 H        27        0    0.0000
    166 H          35.8348  183.8473   21.8317 H        27        0    0.0000
    167 H          35.8593  184.9475   24.1041 H        27        0    0.0000
    168 H          34.6155  186.0734   23.5716 H        27        0    0.0000
    169 C          33.8935  184.0309   23.8488 C.3      28        0    0.0000
    170 C          33.4460  184.2224   25.3021 C.3      28        0    0.0000
    171 H          33.0359  184.1406   23.1736 H        28        0    0.0000
    172 H          34.2797  183.0142   23.7050 H        28        0    0.0000
    173 H          32.5621  183.6061   25.5079 H        28        0    0.0000
    174 H          34.2335  183.8823   25.9861 H        28        0    0.0000
    175 C          33.1060  185.7179   25.6269 C.3      29        0    0.0000
    176 C          32.6621  185.9100   27.0812 C.3      29        0    0.0000
    177 H          33.9890  186.3346   25.4185 H        29        0    0.0000
    178 H          32.3166  186.0572   24.9448 H        29        0    0.0000
    179 H          33.3301  186.6174   27.5881 H        29        0    0.0000
    180 H          31.6568  186.3480   27.1130 H        29        0    0.0000
    181 C          32.6517  184.5624   27.8821 C.3      30        0    0.0000
    182 C          31.9127  184.6870   29.2191 C.3      30        0    0.0000
    183 H          32.1824  183.7872   27.2638 H        30        0    0.0000
    184 H          33.6877  184.2446   28.0531 H        30        0    0.0000
    185 H          32.6074  185.0106   30.0041 H        30        0    0.0000
    186 H          31.1355  185.4580   29.1489 H        30        0    0.0000
    187 C          31.2473  183.3372   29.6582 C.3      31        0    0.0000
    188 C          30.5187  183.4586   31.0011 C.3      31        0    0.0000
    189 H          30.5460  183.0182   28.8772 H        31        0    0.0000
    190 H          32.0232  182.5640   29.7197 H        31        0    0.0000
    191 H          31.1983  183.8607   31.7627 H        31        0    0.0000
    192 H          29.6868  184.1685   30.9149 H        31        0    0.0000
    193 C          29.9587  182.0820   31.4998 C.3      32        0    0.0000
    194 C          29.2239  182.2047   32.8392 C.3      32        0    0.0000
    195 H          29.2832  181.6774   30.7359 H        32        0    0.0000
    196 H          30.7914  181.3736   31.5910 H        32        0    0.0000
    197 H          28.7128  181.2632   33.0755 H        32        0    0.0000
    198 H          29.9433  182.3842   33.6478 H        32        0    0.0000
    199 C          28.1694  183.3646   32.8343 C.3      33        0    0.0000
    200 C          27.5771  183.6170   34.2252 C.3      33        0    0.0000
    201 H          28.6490  184.2769   32.4585 H        33        0    0.0000
    202 H          27.3708  183.1135   32.1253 H        33        0    0.0000
    203 H          27.9562  184.5638   34.6293 H        33        0    0.0000
    204 H          26.4868  183.7177   34.1570 H        33        0    0.0000
    205 C          27.9162  182.4654   35.2333 C.3      34        0    0.0000
    206 C          27.1474  182.6028   36.5520 C.3      34        0    0.0000
    207 H          27.6844  181.5026   34.7612 H        34        0    0.0000
    208 H          28.9963  182.4702   35.4252 H        34        0    0.0000
    209 H          27.7758  183.0957   37.3042 H        34        0    0.0000
    210 H          26.2670  183.2416   36.4094 H        34        0    0.0000
    211 C          26.6799  181.2162   37.1144 C.3      35        0    0.0000
    212 C          25.9033  181.3543   38.4285 C.3      35        0    0.0000
    213 H          26.0569  180.7204   36.3597 H        35        0    0.0000
    214 H          27.5610  180.5797   37.2632 H        35        0    0.0000
    215 H          25.4626  180.3894   38.7082 H        35        0    0.0000
    216 H          26.5851  181.6365   39.2404 H        35        0    0.0000
    217 C          24.7606  182.4232   38.3338 C.3      36        0    0.0000
    218 C          24.0206  182.6018   39.6640 C.3      36        0    0.0000
    219 H          25.1955  183.3784   38.0141 H        36        0    0.0000
    220 H          24.0564  182.1195   37.5494 H        36        0    0.0000
    221 H          24.1518  183.6267   40.0328 H        36        0    0.0000
    222 H          22.9432  182.4552   39.5177 H        36        0    0.0000
    223 C          24.5222  181.6016   40.7619 C.3      37        0    0.0000
    224 C          23.6018  181.5745   41.9872 C.3      37        0    0.0000
    225 H          24.5919  180.5991   40.3216 H        37        0    0.0000
    226 H          25.5387  181.8856   41.0612 H        37        0    0.0000
    227 H          23.7335  182.4902   42.5768 H        37        0    0.0000
    228 H          22.5522  181.5530   41.6688 H        37        0    0.0000
    229 C          23.8758  180.3364   42.9088 C.3      38        0    0.0000
    230 C          22.9489  180.3042   44.1290 C.3      38        0    0.0000
    231 H          23.7510  179.4209   42.3173 H        38        0    0.0000
    232 H          24.9236  180.3617   43.2328 H        38        0    0.0000
    233 H          23.0605  179.3513   44.6611 H        38        0    0.0000
    234 H          23.2301  181.0945   44.8359 H        38        0    0.0000
    235 C          21.4428  180.4901   43.7361 C.3      39        0    0.0000
    236 C          20.5305  180.5910   44.9635 C.3      39        0    0.0000
    237 H          21.3468  181.3933   43.1208 H        39        0    0.0000
    238 H          21.1347  179.6460   43.1068 H        39        0    0.0000
    239 H          20.1164  181.6039   45.0422 H        39        0    0.0000
    240 H          19.6776  179.9095   44.8553 H        39        0    0.0000
    241 C          21.2851  180.2488   46.2943 C.3      40        0    0.0000
    242 C          20.3445  180.2185   47.5041 C.3      40        0    0.0000
    243 H          21.7817  179.2774   46.1795 H        40        0    0.0000
    244 H          22.0774  180.9910   46.4524 H        40        0    0.0000
    245 H          20.3816  181.1786   48.0335 H        40        0    0.0000
    246 H          19.3081  180.0820   47.1714 H        40        0    0.0000
    247 C          20.7074  179.0724   48.5101 C.3      41        0    0.0000
    248 C          19.7457  179.0199   49.7023 C.3      41        0    0.0000
    249 H          20.6954  178.1149   47.9747 H        41        0    0.0000
    250 H          21.7354  179.2235   48.8624 H        41        0    0.0000
    251 H          18.7784  178.6090   49.3876 H        41        0    0.0000
    252 H          20.1386  178.3455   50.4732 H        41        0    0.0000
    253 C          19.5112  180.4331   50.3391 C.3      42        0    0.0000
    254 C          18.3839  180.4225   51.3775 C.3      42        0    0.0000
    255 H          20.4462  180.7718   50.8023 H        42        0    0.0000
    256 H          19.2791  181.1472   49.5393 H        42        0    0.0000
    257 H          18.6864  180.9891   52.2668 H        42        0    0.0000
    258 H          17.4950  180.9221   50.9729 H        42        0    0.0000
    259 C          17.9918  178.9687   51.8138 C.3      43        0    0.0000
    260 C          16.9532  178.9608   52.9408 C.3      43        0    0.0000
    261 H          17.6035  178.4301   50.9406 H        43        0    0.0000
    262 H          18.8978  178.4390   52.1335 H        43        0    0.0000
    263 H          16.9553  179.9266   53.4611 H        43        0    0.0000
    264 H          15.9469  178.8297   52.5241 H        43        0    0.0000
    265 C          17.2193  177.8232   53.9861 C.3      44        0    0.0000
    266 C          16.2204  177.8566   55.1480 C.3      44        0    0.0000
    267 H          17.1690  176.8541   53.4744 H        44        0    0.0000
    268 H          18.2430  177.9255   54.3671 H        44        0    0.0000
    269 H          16.2917  176.9307   55.7321 H        44        0    0.0000
    270 H          16.4651  178.6796   55.8309 H        44        0    0.0000
    271 C          14.7423  178.0310   54.6558 C.3      45        0    0.0000
    272 C          13.7581  178.1942   55.8193 C.3      45        0    0.0000
    273 H          14.6907  178.9046   53.9941 H        45        0    0.0000
    274 H          14.4664  177.1596   54.0492 H        45        0    0.0000
    275 H          13.3444  179.2103   55.8224 H        45        0    0.0000
    276 H          12.9103  177.5093   55.6938 H        45        0    0.0000
    277 C          14.4295  177.9178   57.2086 C.3      46        0    0.0000
    278 C          13.4084  177.8861   58.3512 C.3      46        0    0.0000
    279 H          14.9670  176.9628   57.1579 H        46        0    0.0000
    280 H          15.1821  178.6932   57.3982 H        46        0    0.0000
    281 H          13.2184  178.9038   58.7142 H        46        0    0.0000
    282 H          12.4492  177.4970   57.9878 H        46        0    0.0000
    283 C          13.8893  177.0024   59.5534 C.3      47        0    0.0000
    284 C          12.8621  176.9592   60.6900 C.3      47        0    0.0000
    285 H          14.0893  175.9873   59.1883 H        47        0    0.0000
    286 H          14.8434  177.3977   59.9235 H        47        0    0.0000
    287 H          13.1597  176.2140   61.4380 H        47        0    0.0000
    288 H          12.8302  177.9273   61.2052 H        47        0    0.0000
    289 C          11.4221  176.6125   60.1765 C.3      48        0    0.0000
    290 C          10.3802  176.6494   61.3000 C.3      48        0    0.0000
    291 H          11.1481  177.3222   59.3860 H        48        0    0.0000
    292 H          11.4415  175.6179   59.7140 H        48        0    0.0000
    293 H           9.6519  177.4479   61.1116 H        48        0    0.0000
    294 H           9.8171  175.7081   61.3219 H        48        0    0.0000
    295 C          11.0316  176.8813   62.7069 C.3      49        0    0.0000
    296 C          10.0302  176.6843   63.8503 C.3      49        0    0.0000
    297 H          11.8763  176.1910   62.8236 H        49        0    0.0000
    298 H          11.4470  177.8961   62.7413 H        49        0    0.0000
    299 H           9.4944  177.6213   64.0467 H        49        0    0.0000
    300 H           9.2738  175.9429   63.5643 H        49        0    0.0000
    301 C          10.7250  176.2126   65.1740 C.3      50        0    0.0000
    302 C           9.7231  176.0122   66.3164 C.3      50        0    0.0000
    303 H          11.2629  175.2770   64.9769 H        50        0    0.0000
    304 H          11.4796  176.9553   65.4613 H        50        0    0.0000
    305 H          10.2167  175.5301   67.1693 H        50        0    0.0000
    306 H           9.3583  176.9840   66.6715 H        50        0    0.0000
    307 C           8.4953  175.1391   65.8834 C.3      51        0    0.0000
    308 C           7.3873  175.1293   66.9424 C.3      51        0    0.0000
    309 H           8.1045  175.5247   64.9337 H        51        0    0.0000
    310 H           8.8398  174.1156   65.6900 H        51        0    0.0000
    311 H           6.5398  175.7392   66.6057 H        51        0    0.0000
    312 H           7.0067  174.1095   67.0792 H        51        0    0.0000
    313 C           7.8833  175.6735   68.3263 C.3      52        0    0.0000
    314 C           6.8125  175.5514   69.4160 C.3      52        0    0.0000
    315 H           8.7844  175.1216   68.6209 H        52        0    0.0000
    316 H           8.1812  176.7226   68.2075 H        52        0    0.0000
    317 H           6.7901  176.4635   70.0253 H        52        0    0.0000
    318 H           5.8200  175.4535   68.9589 H        52        0    0.0000
    319 C           7.0593  174.3216   70.3563 C.3      53        0    0.0000
    320 C           6.0380  174.2483   71.4968 C.3      53        0    0.0000
    321 H           7.0196  173.4041   69.7563 H        53        0    0.0000
    322 H           8.0753  174.3872   70.7649 H        53        0    0.0000
    323 H           5.0452  174.0063   71.0977 H        53        0    0.0000
    324 H           6.3047  173.4402   72.1892 H        53        0    0.0000
    325 C           5.9462  175.5917   72.2994 C.3      54        0    0.0000
    326 C           4.8103  175.5772   73.3283 C.3      54        0    0.0000
    327 H           6.9055  175.7704   72.8007 H        54        0    0.0000
    328 H           5.8020  176.4174   71.5915 H        54        0    0.0000
    329 H           5.1658  175.9752   74.2868 H        54        0    0.0000
    330 H           3.9951  176.2329   72.9979 H        54        0    0.0000
    331 C           4.2374  174.1366   73.5606 C.3      55        0    0.0000
    332 C           3.2535  174.0851   74.7346 C.3      55        0    0.0000
    333 H           3.7435  173.7999   72.6407 H        55        0    0.0000
    334 H           5.0729  173.4485   73.7395 H        55        0    0.0000
    335 H           2.6975  175.0285   74.8010 H        55        0    0.0000
    336 H           2.5121  173.2934   74.5696 H        55        0    0.0000
    337 C           3.9739  173.8256   76.1025 C.3      56        0    0.0000
    338 C           2.9850  173.7184   77.2685 C.3      56        0    0.0000
    339 H           4.5628  172.9035   76.0227 H        56        0    0.0000
    340 H           4.6862  174.6393   76.2870 H        56        0    0.0000
    341 H           3.5112  173.4116   78.1810 H        56        0    0.0000
    342 H           2.5403  174.6996   77.4761 H        56        0    0.0000
    343 C           1.8347  172.6932   76.9797 C.3      57        0    0.0000
    344 C           0.7916  172.6592   78.1021 C.3      57        0    0.0000
    345 H           1.3557  172.9579   76.0289 H        57        0    0.0000
    346 H           2.2744  171.6973   76.8445 H        57        0    0.0000
    347 H          -0.1724  173.0285   77.7310 H        57        0    0.0000
    348 H           0.6273  171.6258   78.4317 H        57        0    0.0000
    349 C           1.2210  173.5217   79.3386 C.3      58        0    0.0000
    350 C           0.2200  173.4186   80.4946 C.3      58        0    0.0000
    351 H           2.2140  173.1941   79.6706 H        58        0    0.0000
    352 H           1.3237  174.5671   79.0221 H        58        0    0.0000
    353 H          -0.4729  174.2688   80.4692 H        58        0    0.0000
    354 H          -0.3889  172.5126   80.3852 H        58        0    0.0000
    355 C           0.9283  173.3856   81.8927 C.3      59        0    0.0000
    356 C          -0.0686  173.2207   83.0451 C.3      59        0    0.0000
    357 H           1.6538  172.5628   81.9023 H        59        0    0.0000
    358 H           1.5013  174.3123   82.0207 H        59        0    0.0000
    359 H          -0.8422  173.9964   82.9872 H        59        0    0.0000
    360 H          -0.5834  172.2555   82.9619 H        59        0    0.0000
    361 C           0.6261  173.3036   84.4480 C.3      60        0    0.0000
    362 C          -0.3727  173.1513   85.6006 C.3      60        0    0.0000
    363 H           1.3933  172.5218   84.5094 H        60        0    0.0000
    364 H           1.1487  174.2649   84.5276 H        60        0    0.0000
    365 H          -1.1468  173.9256   85.5322 H        60        0    0.0000
    366 H          -0.8865  172.1848   85.5279 H        60        0    0.0000
    367 C           0.3195  173.2514   87.0036 C.3      61        0    0.0000
    368 C          -0.6791  173.0989   88.1562 C.3      61        0    0.0000
    369 H           1.0938  172.4773   87.0719 H        61        0    0.0000
    370 H           0.8332  174.2180   87.0763 H        61        0    0.0000
    371 H          -1.4542  173.8722   88.0871 H        61        0    0.0000
    372 H          -1.1919  172.1317   88.0842 H        61        0    0.0000
    373 C           0.0127  173.2008   89.5592 C.3      62        0    0.0000
    374 C          -0.9865  173.0521   90.7117 C.3      62        0    0.0000
    375 H           0.7859  172.4257   89.6293 H        62        0    0.0000
    376 H           0.5278  174.1669   89.6301 H        62        0    0.0000
    377 H          -1.7586  173.8284   90.6428 H        62        0    0.0000
    378 H          -1.5029  172.0869   90.6397 H        62        0    0.0000
    379 C          -0.2942  173.1512   92.1147 C.3      63        0    0.0000
    380 C          -1.2949  173.0128   93.2673 C.3      63        0    0.0000
    381 H           0.4727  172.3701   92.1866 H        63        0    0.0000
    382 H           0.2285  174.1133   92.1839 H        63        0    0.0000
    383 H          -2.0637  173.7919   93.1937 H        63        0    0.0000
    384 H          -1.8154  172.0494   93.1999 H        63        0    0.0000
    385 C          -0.6033  173.1164   94.6703 C.3      64        0    0.0000
    386 C          -1.6014  172.9607   95.8229 C.3      64        0    0.0000
    387 H           0.1741  172.3453   94.7391 H        64        0    0.0000
    388 H          -0.0934  174.0851   94.7425 H        64        0    0.0000
    389 H          -2.3781  173.7326   95.7548 H        64        0    0.0000
    390 H          -2.1122  171.9926   95.7500 H        64        0    0.0000
    391 C          -0.9095  173.0626   97.2259 C.3      65        0    0.0000
    392 C          -1.9081  172.9098   98.3785 C.3      65        0    0.0000
    393 H          -0.1343  172.2894   97.2948 H        65        0    0.0000
    394 H          -0.3969  174.0299   97.2980 H        65        0    0.0000
    395 H          -2.6826  173.6837   98.3102 H        65        0    0.0000
    396 H          -2.4215  171.9430   98.3057 H        65        0    0.0000
    397 C          -1.2159  173.0100   99.7814 C.3      66        0    0.0000
    398 C          -2.2187  172.8868  100.9340 C.3      66        0    0.0000
    399 H          -0.4562  172.2222   99.8580 H        66        0    0.0000
    400 H          -0.6844  173.9675   99.8460 H        66        0    0.0000
    401 H          -2.9805  173.6723  100.8554 H        66        0    0.0000
    402 H          -2.7476  171.9277  100.8716 H        66        0    0.0000
    403 C          -1.5272  172.9922  102.3369 C.3      67        0    0.0000
    404 C          -2.5205  172.8075  103.4894 C.3      67        0    0.0000
    405 H          -0.7349  172.2359  102.3983 H        67        0    0.0000
    406 H          -1.0362  173.9700  102.4166 H        67        0    0.0000
    407 H          -3.3096  173.5674  103.4314 H        67        0    0.0000
    408 H          -3.0158  171.8321  103.4064 H        67        0    0.0000
    409 C          -1.8276  172.9046  104.8922 C.3      68        0    0.0000
    410 C          -2.8368  172.8423  106.0441 C.3      68        0    0.0000
    411 H          -1.1004  172.0884  104.9847 H        68        0    0.0000
    412 H          -1.2582  173.8410  104.9413 H        68        0    0.0000
    413 H          -3.5726  173.6497  105.9436 H        68        0    0.0000
    414 H          -3.3962  171.8994  106.0035 H        68        0    0.0000
    415 C          -2.1459  172.9599  107.4463 C.3      69        0    0.0000
    416 C          -2.9270  172.2265  108.5421 C.3      69        0    0.0000
    417 H          -1.1287  172.5553  107.3744 H        69        0    0.0000
    418 H          -2.0450  174.0218  107.7028 H        69        0    0.0000
    419 H          -3.9055  172.7005  108.6880 H        69        0    0.0000
    420 H          -3.1211  171.1908  108.2367 H        69        0    0.0000
    421 C          -2.1622  172.2148  109.9105 C.3      70        0    0.0000
    422 C          -3.0267  172.7361  111.0636 C.3      70        0    0.0000
    423 H          -1.8312  171.1904  110.1218 H        70        0    0.0000
    424 H          -1.2557  172.8251  109.8141 H        70        0    0.0000
    425 H          -3.6109  173.6040  110.7332 H        70        0    0.0000
    426 H          -3.7484  171.9686  111.3696 H        70        0    0.0000
    427 C          -2.1694  173.1489  112.3094 C.3      71        0    0.0000
    428 C          -2.7014  172.5359  113.6095 C.3      71        0    0.0000
    429 H          -1.1310  172.8361  112.1434 H        71        0    0.0000
    430 H          -2.1604  174.2432  112.3856 H        71        0    0.0000
    431 H          -3.6307  173.0363  113.9086 H        71        0    0.0000
    432 H          -2.9490  171.4787  113.4532 H        71        0    0.0000
    433 C          -1.6685  172.6446  114.7838 C.3      72        0    0.0000
    434 C          -2.3482  172.6400  116.1575 C.3      72        0    0.0000
    435 H          -0.9614  171.8090  114.7112 H        72        0    0.0000
    436 H          -1.0838  173.5641  114.6565 H        72        0    0.0000
    437 H          -3.1403  173.3985  116.1878 H        72        0    0.0000
    438 H          -2.8324  171.6717  116.3344 H        72        0    0.0000
    439 C          -1.3364  172.9193  117.3219 C.3      73        0    0.0000
    440 C          -1.9666  172.7061  118.7026 C.3      73        0    0.0000
    441 H          -0.4666  172.2619  117.1998 H        73        0    0.0000
    442 H          -0.9684  173.9488  117.2313 H        73        0    0.0000
    443 H          -2.8125  173.3910  118.8398 H        73        0    0.0000
    444 H          -2.3695  171.6886  118.7792 H        73        0    0.0000
    445 C          -0.9399  172.9318  119.8656 C.3      74        0    0.0000
    446 C          -1.4831  173.8745  120.9451 C.3      74        0    0.0000
    447 H          -0.6868  171.9601  120.3074 H        74        0    0.0000
    448 H          -0.0118  173.3376  119.4441 H        74        0    0.0000
    449 H          -2.3026  174.4798  120.5382 H        74        0    0.0000
    450 H          -1.9029  173.2934  121.7754 H        74        0    0.0000
    451 C          -0.3777  174.8334  121.5074 C.3      75        0    0.0000
    452 C           0.0110  174.4892  122.9494 C.3      75        0    0.0000
    453 H           0.5037  174.7771  120.8566 H        75        0    0.0000
    454 H          -0.7442  175.8660  121.4528 H        75        0    0.0000
    455 H          -0.8704  174.5455  123.6003 H        75        0    0.0000
    456 H           0.3775  173.4566  123.0040 H        75        0    0.0000
    457 H           0.7796  175.1559  123.3405 H        75        0    0.0000
    458 H          49.2798  191.7487  -40.4349 H         0        0    0.0000
@<TRIPOS>BOND
     1     1     2      1
     2     1     3      1
     3     1     4      1
     4     1   458      H
     5     2     5      1
     6     2     6      1
     7     2     7      1
     8     7     8      1
     9     7     9      1
    10     7    10      1
    11     8    11      1
    12     8    12      1
    13     8    13      1
    14    13    14      1
    15    13    15      1
    16    13    16      1
    17    14    17      1
    18    14    18      1
    19    14    19      1
    20    19    20      1
    21    19    21      1
    22    19    22      1
    23    20    23      1
    24    20    24      1
    25    20    25      1
    26    25    26      1
    27    25    27      1
    28    25    28      1
    29    26    29      1
    30    26    30      1
    31    26    31      1
    32    31    32      1
    33    31    33      1
    34    31    34      1
    35    32    35      1
    36    32    36      1
    37    32    37      1
    38    37    38      1
    39    37    39      1
    40    37    40      1
    41    38    41      1
    42    38    42      1
    43    38    43      1
    44    43    44      1
    45    43    45      1
    46    43    46      1
    47    44    47      1
    48    44    48      1
    49    44    49      1
    50    49    50      1
    51    49    51      1
    52    49    52      1
    53    50    53      1
    54    50    54      1
    55    50    55      1
    56    55    56      1
    57    55    57      1
    58    55    58      1
    59    56    59      1
    60    56    60      1
    61    56    61      1
    62    61    62      1
    63    61    63      1
    64    61    64      1
    65    62    65      1
    66    62    66      1
    67    62    67      1
    68    67    68      1
    69    67    69      1
    70    67    70      1
    71    68    71      1
    72    68    72      1
    73    68    73      1
    74    73    74      1
    75    73    75      1
    76    73    76      1
    77    74    77      1
    78    74    78      1
    79    74    79      1
    80    79    80      1
    81    79    81      1
    82    79    82      1
    83    80    83      1
    84    80    84      1
    85    80    85      1
    86    85    86      1
    87    85    87      1
    88    85    88      1
    89    86    89      1
    90    86    90      1
    91    86    91      1
    92    91    92      1
    93    91    93      1
    94    91    94      1
    95    92    95      1
    96    92    96      1
    97    92    97      1
    98    97    98      1
    99    97    99      1
   100    97   100      1
   101    98   101      1
   102    98   102      1
   103    98   103      1
   104   103   104      1
   105   103   105      1
   106   103   106      1
   107   104   107      1
   108   104   108      1
   109   104   109      1
   110   109   110      1
   111   109   111      1
   112   109   112      1
   113   110   113      1
   114   110   114      1
   115   110   115      1
   116   115   116      1
   117   115   117      1
   118   115   118      1
   119   116   119      1
   120   116   120      1
   121   116   121      1
   122   121   122      1
   123   121   123      1
   124   121   124      1
   125   122   125      1
   126   122   126      1
   127   122   127      1
   128   127   128      1
   129   127   129      1
   130   127   130      1
   131   128   131      1
   132   128   132      1
   133   128   133      1
   134   133   134      1
   135   133   135      1
   136   133   136      1
   137   134   137      1
   138   134   138      1
   139   134   139      1
   140   139   140      1
   141   139   141      1
   142   139   142      1
   143   140   143      1
   144   140   144      1
   145   140   145      1
   146   145   146      1
   147   145   147      1
   148   145   148      1
   149   146   149      1
   150   146   150      1
   151   146   151      1
   152   151   152      1
   153   151   153      1
   154   151   154      1
   155   152   155      1
   156   152   156      1
   157   152   157      1
   158   157   158      1
   159   157   159      1
   160   157   160      1
   161   158   161      1
   162   158   162      1
   163   158   163      1
   164   163   164      1
   165   163   165      1
   166   163   166      1
   167   164   167      1
   168   164   168      1
   169   164   169      1
   170   169   170      1
   171   169   171      1
   172   169   172      1
   173   170   173      1
   174   170   174      1
   175   170   175      1
   176   175   176      1
   177   175   177      1
   178   175   178      1
   179   176   179      1
   180   176   180      1
   181   176   181      1
   182   181   182      1
   183   181   183      1
   184   181   184      1
   185   182   185      1
   186   182   186      1
   187   182   187      1
   188   187   188      1
   189   187   189      1
   190   187   190      1
   191   188   191      1
   192   188   192      1
   193   188   193      1
   194   193   194      1
   195   193   195      1
   196   193   196      1
   197   194   197      1
   198   194   198      1
   199   194   199      1
   200   199   200      1
   201   199   201      1
   202   199   202      1
   203   200   203      1
   204   200   204      1
   205   200   205      1
   206   205   206      1
   207   205   207      1
   208   205   208      1
   209   206   209      1
   210   206   210      1
   211   206   211      1
   212   211   212      1
   213   211   213      1
   214   211   214      1
   215   212   215      1
   216   212   216      1
   217   212   217      1
   218   217   218      1
   219   217   219      1
   220   217   220      1
   221   218   221      1
   222   218   222      1
   223   218   223      1
   224   223   224      1
   225   223   225      1
   226   223   226      1
   227   224   227      1
   228   224   228      1
   229   224   229      1
   230   229   230      1
   231   229   231      1
   232   229   232      1
   233   230   233      1
   234   230   234      1
   235   230   235      1
   236   235   236      1
   237   235   237      1
   238   235   238      1
   239   236   239      1
   240   236   240      1
   241   236   241      1
   242   241   242      1
   243   241   243      1
   244   241   244      1
   245   242   245      1
   246   242   246      1
   247   242   247      1
   248   247   248      1
   249   247   249      1
   250   247   250      1
   251   248   251      1
   252   248   252      1
   253   248   253      1
   254   253   254      1
   255   253   255      1
   256   253   256      1
   257   254   257      1
   258   254   258      1
   259   254   259      1
   260   259   260      1
   261   259   261      1
   262   259   262      1
   263   260   263      1
   264   260   264      1
   265   260   265      1
   266   265   266      1
   267   265   267      1
   268   265   268      1
   269   266   269      1
   270   266   270      1
   271   266   271      1
   272   271   272      1
   273   271   273      1
   274   271   274      1
   275   272   275      1
   276   272   276      1
   277   272   277      1
   278   277   278      1
   279   277   279      1
   280   277   280      1
   281   278   281      1
   282   278   282      1
   283   278   283      1
   284   283   284      1
   285   283   285      1
   286   283   286      1
   287   284   287      1
   288   284   288      1
   289   284   289      1
   290   289   290      1
   291   289   291      1
   292   289   292      1
   293   290   293      1
   294   290   294      1
   295   290   295      1
   296   295   296      1
   297   295   297      1
   298   295   298      1
   299   296   299      1
   300   296   300      1
   301   296   301      1
   302   301   302      1
   303   301   303      1
   304   301   304      1
   305   302   305      1
   306   302   306      1
   307   302   307      1
   308   307   308      1
   309   307   309      1
   310   307   310      1
   311   308   311      1
   312   308   312      1
   313   308   313      1
   314   313   314      1
   315   313   315      1
   316   313   316      1
   317   314   317      1
   318   314   318      1
   319   314   319      1
   320   319   320      1
   321   319   321      1
   322   319   322      1
   323   320   323      1
   324   320   324      1
   325   320   325      1
   326   325   326      1
   327   325   327      1
   328   325   328      1
   329   326   329      1
   330   326   330      1
   331   326   331      1
   332   331   332      1
   333   331   333      1
   334   331   334      1
   335   332   335      1
   336   332   336      1
   337   332   337      1
   338   337   338      1
   339   337   339      1
   340   337   340      1
   341   338   341      1
   342   338   342      1
   343   338   343      1
   344   343   344      1
   345   343   345      1
   346   343   346      1
   347   344   347      1
   348   344   348      1
   349   344   349      1
   350   349   350      1
   351   349   351      1
   352   349   352      1
   353   350   353      1
   354   350   354      1
   355   350   355      1
   356   355   356      1
   357   355   357      1
   358   355   358      1
   359   356   359      1
   360   356   360      1
   361   356   361      1
   362   361   362      1
   363   361   363      1
   364   361   364      1
   365   362   365      1
   366   362   366      1
   367   362   367      1
   368   367   368      1
   369   367   369      1
   370   367   370      1
   371   368   371      1
   372   368   372      1
   373   368   373      1
   374   373   374      1
   375   373   375      1
   376   373   376      1
   377   374   377      1
   378   374   378      1
   379   374   379      1
   380   379   380      1
   381   379   381      1
   382   379   382      1
   383   380   383      1
   384   380   384      1
   385   380   385      1
   386   385   386      1
   387   385   387      1
   388   385   388      1
   389   386   389      1
   390   386   390      1
   391   386   391      1
   392   391   392      1
   393   391   393      1
   394   391   394      1
   395   392   395      1
   396   392   396      1
   397   392   397      1
   398   397   398      1
   399   397   399      1
   400   397   400      1
   401   398   401      1
   402   398   402      1
   403   398   403      1
   404   403   404      1
   405   403   405      1
   406   403   406      1
   407   404   407      1
   408   404   408      1
   409   404   409      1
   410   409   410      1
   411   409   411      1
   412   409   412      1
   413   410   413      1
   414   410   414      1
   415   410   415      1
   416   415   416      1
   417   415   417      1
   418   415   418      1
   419   416   419      1
   420   416   420      1
   421   416   421      1
   422   421   422      1
   423   421   423      1
   424   421   424      1
   425   422   425      1
   426   422   426      1
   427   422   427      1
   428   427   428      1
   429   427   429      1
   430   427   430      1
   431   428   431      1
   432   428   432      1
   433   428   433      1
   434   433   434      1
   435   433   435      1
   436   433   436      1
   437   434   437      1
   438   434   438      1
   439   434   439      1
   440   439   440      1
   441   439   441      1
   442   439   442      1
   443   440   443      1
   444   440   444      1
   445   440   445      1
   446   445   446      1
   447   445   447      1
   448   445   448      1
   449   446   449      1
   450   446   450      1
   451   446   451      1
   452   451   452      1
   453   451   453      1
   454   451   454      1
   455   452   455      1
   456   452   456      1
   457   452   457      H
