###
### Created by PolyChef-cpp17 on Thu Feb 27 19:40:30 2025
###

@<TRIPOS>MOLECULE
NO_INFO
482 481 1 0 0
SMALL
USER_CHARGES


@<TRIPOS>ATOM
      1 C          49.2798   87.8287  -39.3449 C.3       0        0    0.0000
      2 C          47.8706   87.6682  -38.7641 C.3       0        0    0.0000
      3 H          49.9271   87.0166  -38.9913 H         0        0    0.0000
      4 H          49.7280   88.7655  -38.9913 H         0        0    0.0000
      5 H          47.3722   88.6441  -38.7110 H         0        0    0.0000
      6 H          47.2611   87.0387  -39.4242 H         0        0    0.0000
      7 C          47.8873   87.0308  -37.3320 C.3       1        0    0.0000
      8 C          49.1651   87.3740  -36.5584 C.3       1        0    0.0000
      9 H          47.0071   87.3811  -36.7787 H         1        0    0.0000
     10 H          47.7865   85.9426  -37.4280 H         1        0    0.0000
     11 H          50.0455   87.1959  -37.1883 H         1        0    0.0000
     12 H          49.1733   88.4400  -36.2996 H         1        0    0.0000
     13 C          49.3069   86.5335  -35.2427 C.3       2        0    0.0000
     14 C          50.2073   87.2196  -34.2094 C.3       2        0    0.0000
     15 H          48.3083   86.3672  -34.8200 H         2        0    0.0000
     16 H          49.7103   85.5453  -35.4961 H         2        0    0.0000
     17 H          51.2611   87.0971  -34.4885 H         2        0    0.0000
     18 H          50.0086   88.2984  -34.1946 H         2        0    0.0000
     19 C          49.9972   86.6472  -32.7652 C.3       3        0    0.0000
     20 C          50.6216   87.5424  -31.6891 C.3       3        0    0.0000
     21 H          48.9213   86.5343  -32.5826 H         3        0    0.0000
     22 H          50.4323   85.6413  -32.7167 H         3        0    0.0000
     23 H          51.7108   87.5784  -31.8154 H         3        0    0.0000
     24 H          50.2577   88.5715  -31.7983 H         3        0    0.0000
     25 C          50.2973   87.0428  -30.2391 C.3       4        0    0.0000
     26 C          50.9011   87.9518  -29.1629 C.3       4        0    0.0000
     27 H          49.2081   86.9896  -30.1188 H         4        0    0.0000
     28 H          50.6772   86.0201  -30.1242 H         4        0    0.0000
     29 H          51.9908   88.0006  -29.2798 H         4        0    0.0000
     30 H          50.5254   88.9757  -29.2812 H         4        0    0.0000
     31 C          50.5701   87.4566  -27.7128 C.3       5        0    0.0000
     32 C          51.1794   88.3619  -26.6366 C.3       5        0    0.0000
     33 H          49.4803   87.4124  -27.5944 H         5        0    0.0000
     34 H          50.9415   86.4309  -27.5960 H         5        0    0.0000
     35 H          52.2691   88.4064  -26.7553 H         5        0    0.0000
     36 H          50.8077   89.3875  -26.7532 H         5        0    0.0000
     37 C          50.8489   87.8664  -25.1866 C.3       6        0    0.0000
     38 C          51.4450   88.7804  -24.1104 C.3       6        0    0.0000
     39 H          49.7593   87.8109  -25.0716 H         6        0    0.0000
     40 H          51.2308   86.8450  -25.0663 H         6        0    0.0000
     41 H          52.5349   88.8339  -24.2238 H         6        0    0.0000
     42 H          51.0652   89.8024  -24.2323 H         6        0    0.0000
     43 C          51.1115   88.2869  -22.6603 C.3       7        0    0.0000
     44 C          52.2149   88.6422  -21.6577 C.3       7        0    0.0000
     45 H          50.1595   88.7322  -22.3455 H         7        0    0.0000
     46 H          50.9591   87.2007  -22.6828 H         7        0    0.0000
     47 H          53.1879   88.3016  -22.0328 H         7        0    0.0000
     48 H          52.2843   89.7312  -21.5449 H         7        0    0.0000
     49 C          51.9650   88.0032  -20.2482 C.3       8        0    0.0000
     50 C          52.0035   89.0438  -19.1236 C.3       8        0    0.0000
     51 H          50.9926   87.4953  -20.2575 H         8        0    0.0000
     52 H          52.7226   87.2298  -20.0712 H         8        0    0.0000
     53 H          53.0425   89.2537  -18.8408 H         8        0    0.0000
     54 H          51.5745   89.9912  -19.4728 H         8        0    0.0000
     55 C          51.2188   88.5725  -17.8509 C.3       9        0    0.0000
     56 C          52.0862   88.6071  -16.5878 C.3       9        0    0.0000
     57 H          50.3386   89.2142  -17.7205 H         9        0    0.0000
     58 H          50.8447   87.5557  -18.0226 H         9        0    0.0000
     59 H          53.0884   88.2197  -16.8090 H         9        0    0.0000
     60 H          52.2164   89.6424  -16.2491 H         9        0    0.0000
     61 C          51.4665   87.7670  -15.4184 C.3      10        0    0.0000
     62 C          51.8015   88.3521  -14.0419 C.3      10        0    0.0000
     63 H          50.3787   87.7219  -15.5533 H        10        0    0.0000
     64 H          51.8357   86.7364  -15.4890 H        10        0    0.0000
     65 H          52.8769   88.2603  -13.8458 H        10        0    0.0000
     66 H          51.5679   89.4238  -14.0217 H        10        0    0.0000
     67 C          51.0148   87.6417  -12.8870 C.3      11        0    0.0000
     68 C          51.4893   88.0893  -11.5001 C.3      11        0    0.0000
     69 H          49.9450   87.8539  -13.0052 H        11        0    0.0000
     70 H          51.1342   86.5563  -12.9932 H        11        0    0.0000
     71 H          52.5673   87.9142  -11.3967 H        11        0    0.0000
     72 H          51.3323   89.1683  -11.3789 H        11        0    0.0000
     73 C          50.7422   87.3372  -10.3452 C.3      12        0    0.0000
     74 C          51.2038   87.7978   -8.9582 C.3      12        0    0.0000
     75 H          49.6632   87.5014  -10.4563 H        12        0    0.0000
     76 H          50.9101   86.2590  -10.4587 H        12        0    0.0000
     77 H          52.2823   87.6310   -8.8461 H        12        0    0.0000
     78 H          51.0385   88.8765   -8.8457 H        12        0    0.0000
     79 C          50.4539   87.0485   -7.8033 C.3      13        0    0.0000
     80 C          50.9114   87.5133   -6.4163 C.3      13        0    0.0000
     81 H          49.3751   87.2118   -7.9179 H        13        0    0.0000
     82 H          50.6227   85.9701   -7.9133 H        13        0    0.0000
     83 H          51.9907   87.3531   -6.3030 H        13        0    0.0000
     84 H          50.7394   88.5910   -6.3051 H        13        0    0.0000
     85 C          50.1648   86.7607   -5.2614 C.3      14        0    0.0000
     86 C          50.6207   87.2269   -3.8744 C.3      14        0    0.0000
     87 H          49.0854   86.9195   -5.3757 H        14        0    0.0000
     88 H          50.3380   85.6830   -5.3718 H        14        0    0.0000
     89 H          51.7015   87.0749   -3.7629 H        14        0    0.0000
     90 H          50.4407   88.3032   -3.7614 H        14        0    0.0000
     91 C          49.8817   86.4669   -2.7196 C.3      15        0    0.0000
     92 C          50.3347   86.9360   -1.3326 C.3      15        0    0.0000
     93 H          48.8008   86.6164   -2.8328 H        15        0    0.0000
     94 H          50.0643   85.3909   -2.8309 H        15        0    0.0000
     95 H          51.4178   86.7990   -1.2242 H        15        0    0.0000
     96 H          50.1398   88.0094   -1.2163 H        15        0    0.0000
     97 C          49.6095   86.1628   -0.1777 C.3      16        0    0.0000
     98 C          49.9763   86.7088    1.2066 C.3      16        0    0.0000
     99 H          48.5256   86.2298   -0.3335 H        16        0    0.0000
    100 H          49.8723   85.0998   -0.2445 H        16        0    0.0000
    101 H          49.3806   86.2066    1.9790 H        16        0    0.0000
    102 H          51.0283   86.4923    1.4298 H        16        0    0.0000
    103 C          49.7445   88.2554    1.3158 C.3      17        0    0.0000
    104 C          50.3426   88.8432    2.5987 C.3      17        0    0.0000
    105 H          50.1864   88.7420    0.4374 H        17        0    0.0000
    106 H          48.6665   88.4549    1.2775 H        17        0    0.0000
    107 H          50.1891   89.9292    2.6220 H        17        0    0.0000
    108 H          49.8273   88.4333    3.4761 H        17        0    0.0000
    109 C          51.8764   88.5467    2.7292 C.3      18        0    0.0000
    110 C          52.4702   89.1167    4.0222 C.3      18        0    0.0000
    111 H          52.0313   87.4613    2.6906 H        18        0    0.0000
    112 H          52.3937   88.9699    1.8592 H        18        0    0.0000
    113 H          52.1420   88.5195    4.8820 H        18        0    0.0000
    114 H          53.5650   89.0526    3.9935 H        18        0    0.0000
    115 C          52.0575   90.6106    4.2574 C.3      19        0    0.0000
    116 C          52.3456   91.0741    5.6896 C.3      19        0    0.0000
    117 H          52.5967   91.2433    3.5416 H        19        0    0.0000
    118 H          50.9892   90.7217    4.0338 H        19        0    0.0000
    119 H          52.7124   92.1080    5.6837 H        19        0    0.0000
    120 H          51.4204   91.0714    6.2791 H        19        0    0.0000
    121 C          53.4040   90.1666    6.4062 C.3      20        0    0.0000
    122 C          53.7462   90.6723    7.8119 C.3      20        0    0.0000
    123 H          53.0138   89.1427    6.4594 H        20        0    0.0000
    124 H          54.3107   90.1265    5.7898 H        20        0    0.0000
    125 H          53.6113   89.8670    8.5446 H        20        0    0.0000
    126 H          54.8018   90.9674    7.8590 H        20        0    0.0000
    127 C          52.8606   91.8945    8.2356 C.3      21        0    0.0000
    128 C          53.3749   92.5699    9.5117 C.3      21        0    0.0000
    129 H          52.8374   92.6172    7.4106 H        21        0    0.0000
    130 H          51.8293   91.5500    8.3817 H        21        0    0.0000
    131 H          52.5339   92.8187   10.1707 H        21        0    0.0000
    132 H          54.0186   91.8788   10.0698 H        21        0    0.0000
    133 C          54.1826   93.8784    9.2071 C.3      22        0    0.0000
    134 C          54.6407   94.5891   10.4854 C.3      22        0    0.0000
    135 H          55.0509   93.6219    8.5875 H        22        0    0.0000
    136 H          53.5552   94.5498    8.6077 H        22        0    0.0000
    137 H          55.7246   94.7555   10.4555 H        22        0    0.0000
    138 H          54.1719   95.5785   10.5544 H        22        0    0.0000
    139 C          54.2903   93.7727   11.7771 C.3      23        0    0.0000
    140 C          54.6639   94.5252   13.0589 C.3      23        0    0.0000
    141 H          53.2167   93.5474   11.7725 H        23        0    0.0000
    142 H          54.8145   92.8097   11.7398 H        23        0    0.0000
    143 H          53.9230   95.3075   13.2655 H        23        0    0.0000
    144 H          54.6462   93.8404   13.9158 H        23        0    0.0000
    145 C          56.0832   95.1847   12.9685 C.3      24        0    0.0000
    146 C          56.3734   96.1042   14.1598 C.3      24        0    0.0000
    147 H          56.8389   94.3914   12.9128 H        24        0    0.0000
    148 H          56.1510   95.7507   12.0311 H        24        0    0.0000
    149 H          57.3835   95.9149   14.5438 H        24        0    0.0000
    150 H          56.3495   97.1533   13.8398 H        24        0    0.0000
    151 C          55.3445   95.9082   15.3261 C.3      25        0    0.0000
    152 C          55.6275   96.8363   16.5125 C.3      25        0    0.0000
    153 H          54.3336   96.0888   14.9400 H        25        0    0.0000
    154 H          55.3748   94.8611   15.6521 H        25        0    0.0000
    155 H          55.3568   97.8680   16.2559 H        25        0    0.0000
    156 H          55.0052   96.5513   17.3699 H        25        0    0.0000
    157 C          57.1332   96.8022   16.9475 C.3      26        0    0.0000
    158 C          57.4551   97.8593   18.0095 C.3      26        0    0.0000
    159 H          57.3682   95.8011   17.3298 H        26        0    0.0000
    160 H          57.7609   96.9563   16.0611 H        26        0    0.0000
    161 H          58.0626   97.4168   18.8087 H        26        0    0.0000
    162 H          58.0539   98.6657   17.5683 H        26        0    0.0000
    163 C          56.1615   98.4788   18.6423 C.3      27        0    0.0000
    164 C          56.4821   99.4679   19.7684 C.3      27        0    0.0000
    165 H          55.5873   98.9802   17.8534 H        27        0    0.0000
    166 H          55.5304   97.6665   19.0235 H        27        0    0.0000
    167 H          55.9680  100.4205   19.5900 H        27        0    0.0000
    168 H          56.1084   99.0826   20.7251 H        27        0    0.0000
    169 C          58.0202   99.7405   19.8996 C.3      28        0    0.0000
    170 C          58.3602  100.5612   21.1486 C.3      28        0    0.0000
    171 H          58.5487   98.7795   19.9256 H        28        0    0.0000
    172 H          58.3644  100.2651   18.9996 H        28        0    0.0000
    173 H          59.4467  100.6886   21.2307 H        28        0    0.0000
    174 H          57.9304  101.5672   21.0661 H        28        0    0.0000
    175 C          57.8292   99.8911   22.4625 C.3      29        0    0.0000
    176 C          58.1488  100.7234   23.7091 C.3      29        0    0.0000
    177 H          56.7451   99.7482   22.3734 H        29        0    0.0000
    178 H          58.2722   98.8916   22.5537 H        29        0    0.0000
    179 H          57.2202  101.0138   24.2158 H        29        0    0.0000
    180 H          58.7238  100.1230   24.4250 H        29        0    0.0000
    181 C          58.9636  102.0180   23.3663 C.3      30        0    0.0000
    182 C          59.3625  102.8026   24.6211 C.3      30        0    0.0000
    183 H          59.8591  101.7328   22.8004 H        30        0    0.0000
    184 H          58.3601  102.6504   22.7033 H        30        0    0.0000
    185 H          60.0176  103.6394   24.3490 H        30        0    0.0000
    186 H          58.4723  103.2392   25.0906 H        30        0    0.0000
    187 C          60.1000  101.9049   25.6735 C.3      31        0    0.0000
    188 C          60.4815  102.6848   26.9366 C.3      31        0    0.0000
    189 H          59.4507  101.0602   25.9348 H        31        0    0.0000
    190 H          60.9981  101.4798   25.2083 H        31        0    0.0000
    191 H          59.9993  102.2377   27.8147 H        31        0    0.0000
    192 H          61.5636  102.6218   27.1051 H        31        0    0.0000
    193 C          60.0709  104.1952   26.8489 C.3      32        0    0.0000
    194 C          60.4995  104.9866   28.0894 C.3      32        0    0.0000
    195 H          60.5216  104.6325   25.9494 H        32        0    0.0000
    196 H          58.9834  104.2590   26.7192 H        32        0    0.0000
    197 H          60.3105  106.0565   27.9369 H        32        0    0.0000
    198 H          59.9003  104.6812   28.9561 H        32        0    0.0000
    199 C          62.0168  104.7848   28.4278 C.3      33        0    0.0000
    200 C          62.4379  105.5503   29.6871 C.3      33        0    0.0000
    201 H          62.2108  103.7128   28.5568 H        33        0    0.0000
    202 H          62.6171  105.1126   27.5701 H        33        0    0.0000
    203 H          62.8001  104.8497   30.4497 H        33        0    0.0000
    204 H          63.2723  106.2240   29.4564 H        33        0    0.0000
    205 C          61.2616  106.3917   30.2920 C.3      34        0    0.0000
    206 C          61.6825  107.1570   31.5514 C.3      34        0    0.0000
    207 H          60.8994  107.0923   29.5295 H        34        0    0.0000
    208 H          60.4270  105.7179   30.5226 H        34        0    0.0000
    209 H          60.8920  107.8576   31.8477 H        34        0    0.0000
    210 H          61.8156  106.4601   32.3882 H        34        0    0.0000
    211 C          63.0146  107.9568   31.3432 C.3      35        0    0.0000
    212 C          63.4620  108.6819   32.6172 C.3      35        0    0.0000
    213 H          63.7961  107.2618   31.0117 H        35        0    0.0000
    214 H          62.8699  108.6791   30.5303 H        35        0    0.0000
    215 H          64.4356  108.2981   32.9462 H        35        0    0.0000
    216 H          63.5975  109.7514   32.4134 H        35        0    0.0000
    217 C          62.4321  108.5170   33.7874 C.3      36        0    0.0000
    218 C          62.8834  109.2352   35.0639 C.3      36        0    0.0000
    219 H          61.4600  108.9064   33.4604 H        36        0    0.0000
    220 H          62.2920  107.4474   33.9871 H        36        0    0.0000
    221 H          62.0683  109.2455   35.7981 H        36        0    0.0000
    222 H          63.7170  108.6922   35.5263 H        36        0    0.0000
    223 C          63.3333  110.7113   34.7877 C.3      37        0    0.0000
    224 C          63.8726  111.3994   36.0466 C.3      37        0    0.0000
    225 H          64.1007  110.7063   34.0037 H        37        0    0.0000
    226 H          62.4792  111.2725   34.3890 H        37        0    0.0000
    227 H          64.9390  111.6260   35.9238 H        37        0    0.0000
    228 H          63.3623  112.3584   36.1991 H        37        0    0.0000
    229 C          63.6877  110.5189   37.3304 C.3      38        0    0.0000
    230 C          64.2394  111.2011   38.5870 C.3      38        0    0.0000
    231 H          62.6203  110.3006   37.4587 H        38        0    0.0000
    232 H          64.1896  109.5560   37.1740 H        38        0    0.0000
    233 H          63.9381  110.6421   39.4816 H        38        0    0.0000
    234 H          65.3363  111.1961   38.5670 H        38        0    0.0000
    235 C          63.7434  112.6818   38.7256 C.3      39        0    0.0000
    236 C          64.4093  113.4101   39.8982 C.3      39        0    0.0000
    237 H          63.9486  113.2126   37.7877 H        39        0    0.0000
    238 H          62.6539  112.6791   38.8542 H        39        0    0.0000
    239 H          65.0878  114.1860   39.5226 H        39        0    0.0000
    240 H          63.6503  113.9214   40.5033 H        39        0    0.0000
    241 C          65.2183  112.4348   40.8210 C.3      40        0    0.0000
    242 C          65.8744  113.1613   42.0004 C.3      40        0    0.0000
    243 H          64.5417  111.6539   41.1896 H        40        0    0.0000
    244 H          65.9830  111.9300   40.2178 H        40        0    0.0000
    245 H          66.2947  112.4325   42.7044 H        40        0    0.0000
    246 H          66.7113  113.7753   41.6454 H        40        0    0.0000
    247 C          64.8633  114.0807   42.7685 C.3      41        0    0.0000
    248 C          65.5635  114.9995   43.7758 C.3      41        0    0.0000
    249 H          64.3048  114.6794   42.0383 H        41        0    0.0000
    250 H          64.1303  113.4474   43.2833 H        41        0    0.0000
    251 H          65.5914  116.0267   43.3918 H        41        0    0.0000
    252 H          64.9968  115.0294   44.7147 H        41        0    0.0000
    253 C          67.0287  114.5354   44.0846 C.3      42        0    0.0000
    254 C          67.7022  115.4082   45.1493 C.3      42        0    0.0000
    255 H          67.0062  113.4895   44.4148 H        42        0    0.0000
    256 H          67.6106  114.5599   43.1550 H        42        0    0.0000
    257 H          67.9221  114.8099   46.0422 H        42        0    0.0000
    258 H          68.6636  115.7822   44.7761 H        42        0    0.0000
    259 C          66.8124  116.6297   45.5661 C.3      43        0    0.0000
    260 C          67.3809  117.3757   46.7783 C.3      43        0    0.0000
    261 H          66.7255  117.3119   44.7114 H        43        0    0.0000
    262 H          65.7995  116.2704   45.7866 H        43        0    0.0000
    263 H          68.3428  117.8355   46.5198 H        43        0    0.0000
    264 H          66.7082  118.1930   47.0664 H        43        0    0.0000
    265 C          67.5874  116.4323   48.0132 C.3      44        0    0.0000
    266 C          68.1651  117.1762   49.2222 C.3      44        0    0.0000
    267 H          66.6241  115.9780   48.2761 H        44        0    0.0000
    268 H          68.2543  115.6109   47.7230 H        44        0    0.0000
    269 H          67.4914  117.0767   50.0823 H        44        0    0.0000
    270 H          69.1217  116.7279   49.5179 H        44        0    0.0000
    271 C          68.3901  118.6999   48.9303 C.3      45        0    0.0000
    272 C          68.8764  119.4628   50.1675 C.3      45        0    0.0000
    273 H          69.1185  118.8002   48.1161 H        45        0    0.0000
    274 H          67.4499  119.1329   48.5669 H        45        0    0.0000
    275 H          69.8948  119.1480   50.4273 H        45        0    0.0000
    276 H          68.9242  120.5374   49.9521 H        45        0    0.0000
    277 C          67.9457  119.2370   51.4086 C.3      46        0    0.0000
    278 C          68.4589  119.9601   52.6587 C.3      46        0    0.0000
    279 H          66.9353  119.5852   51.1608 H        46        0    0.0000
    280 H          67.8692  118.1598   51.6019 H        46        0    0.0000
    281 H          67.6879  119.9554   53.4391 H        46        0    0.0000
    282 H          69.3269  119.4301   53.0701 H        46        0    0.0000
    283 C          68.8675  121.4440   52.3610 C.3      47        0    0.0000
    284 C          69.7310  122.0436   53.4763 C.3      47        0    0.0000
    285 H          69.4086  121.4772   51.4072 H        47        0    0.0000
    286 H          67.9571  122.0415   52.2276 H        47        0    0.0000
    287 H          70.7898  122.0111   53.1909 H        47        0    0.0000
    288 H          69.4764  123.1007   53.6220 H        47        0    0.0000
    289 C          69.5512  121.2882   54.8380 C.3      48        0    0.0000
    290 C          70.3418  121.9446   55.9752 C.3      48        0    0.0000
    291 H          68.4836  121.2609   55.0890 H        48        0    0.0000
    292 H          69.8714  120.2467   54.7096 H        48        0    0.0000
    293 H          70.1095  121.4524   56.9278 H        48        0    0.0000
    294 H          71.4184  121.8155   55.8083 H        48        0    0.0000
    295 C          70.0311  123.4753   56.1084 C.3      49        0    0.0000
    296 C          70.9516  124.1692   57.1185 C.3      49        0    0.0000
    297 H          70.1339  123.9441   55.1219 H        49        0    0.0000
    298 H          68.9830  123.5986   56.4080 H        49        0    0.0000
    299 H          71.9739  124.2185   56.7237 H        49        0    0.0000
    300 H          70.6245  125.2044   57.2762 H        49        0    0.0000
    301 C          70.9790  123.4316   58.5015 C.3      50        0    0.0000
    302 C          71.7908  124.1973   59.5521 C.3      50        0    0.0000
    303 H          69.9477  123.2944   58.8496 H        50        0    0.0000
    304 H          71.3995  122.4284   58.3590 H        50        0    0.0000
    305 H          71.7176  123.6940   60.5242 H        50        0    0.0000
    306 H          72.8530  124.2001   59.2780 H        50        0    0.0000
    307 C          71.3064  125.6795   59.7128 C.3      51        0    0.0000
    308 C          72.1920  126.4789   60.6751 C.3      51        0    0.0000
    309 H          71.2970  126.1575   58.7254 H        51        0    0.0000
    310 H          70.2695  125.6758   60.0709 H        51        0    0.0000
    311 H          73.1137  126.7896   60.1678 H        51        0    0.0000
    312 H          71.6777  127.3972   60.9846 H        51        0    0.0000
    313 C          72.5719  125.6567   61.9546 C.3      52        0    0.0000
    314 C          73.3529  126.4948   62.9728 C.3      52        0    0.0000
    315 H          71.6529  125.2695   62.4120 H        52        0    0.0000
    316 H          73.1646  124.7847   61.6516 H        52        0    0.0000
    317 H          73.5229  125.9131   63.8874 H        52        0    0.0000
    318 H          74.3423  126.7477   62.5720 H        52        0    0.0000
    319 C          72.6059  127.8207   63.3488 C.3      53        0    0.0000
    320 C          73.4229  128.6967   64.3049 C.3      53        0    0.0000
    321 H          72.3837  128.3746   62.4282 H        53        0    0.0000
    322 H          71.6407  127.5660   63.8039 H        53        0    0.0000
    323 H          74.2261  129.2043   63.7565 H        53        0    0.0000
    324 H          72.7871  129.4825   64.7313 H        53        0    0.0000
    325 C          74.0558  127.8681   65.4755 C.3      54        0    0.0000
    326 C          74.8160  128.7535   66.4691 C.3      54        0    0.0000
    327 H          73.2580  127.3211   65.9932 H        54        0    0.0000
    328 H          74.7303  127.1143   65.0509 H        54        0    0.0000
    329 H          75.1405  128.1582   67.3316 H        54        0    0.0000
    330 H          75.7250  129.1503   66.0002 H        54        0    0.0000
    331 C          73.9468  129.9532   66.9815 C.3      55        0    0.0000
    332 C          74.7322  130.8838   67.9122 C.3      55        0    0.0000
    333 H          73.5735  130.5145   66.1160 H        55        0    0.0000
    334 H          73.0669  129.5554   67.5023 H        55        0    0.0000
    335 H          75.4117  131.5154   67.3267 H        55        0    0.0000
    336 H          74.0450  131.5605   68.4350 H        55        0    0.0000
    337 C          75.5686  130.0923   68.9759 C.3      56        0    0.0000
    338 C          76.2912  131.0229   69.9562 C.3      56        0    0.0000
    339 H          74.8980  129.4178   69.5225 H        56        0    0.0000
    340 H          76.2959  129.4585   68.4536 H        56        0    0.0000
    341 H          76.7707  130.4353   70.7488 H        56        0    0.0000
    342 H          77.0916  131.5662   69.4388 H        56        0    0.0000
    343 C          75.3195  132.0618   70.6150 C.3      57        0    0.0000
    344 C          76.0573  133.0547   71.5200 C.3      57        0    0.0000
    345 H          74.7868  132.6004   69.8214 H        57        0    0.0000
    346 H          74.5602  131.5194   71.1920 H        57        0    0.0000
    347 H          76.5639  133.8138   70.9111 H        57        0    0.0000
    348 H          75.3404  133.5882   72.1563 H        57        0    0.0000
    349 C          77.1179  132.3501   72.4344 C.3      58        0    0.0000
    350 C          77.7893  133.3280   73.4050 C.3      58        0    0.0000
    351 H          76.6243  131.5451   72.9928 H        58        0    0.0000
    352 H          77.8736  131.8741   71.7973 H        58        0    0.0000
    353 H          78.4446  132.7825   74.0953 H        58        0    0.0000
    354 H          78.4274  134.0284   72.8520 H        58        0    0.0000
    355 C          76.7455  134.1469   74.2400 C.3      59        0    0.0000
    356 C          77.4114  135.2106   75.1198 C.3      59        0    0.0000
    357 H          76.0343  134.6197   73.5513 H        59        0    0.0000
    358 H          76.1673  133.4524   74.8621 H        59        0    0.0000
    359 H          77.6819  136.0843   74.5139 H        59        0    0.0000
    360 H          76.7065  135.5627   75.8831 H        59        0    0.0000
    361 C          78.6996  134.6712   75.8319 C.3      60        0    0.0000
    362 C          79.2909  135.6899   76.8125 C.3      60        0    0.0000
    363 H          78.4493  133.7426   76.3597 H        60        0    0.0000
    364 H          79.4424  134.4092   75.0683 H        60        0    0.0000
    365 H          80.1379  135.2463   77.3505 H        60        0    0.0000
    366 H          79.6841  136.5552   76.2645 H        60        0    0.0000
    367 C          78.2351  136.1909   77.8574 C.3      61        0    0.0000
    368 C          78.8193  137.2297   78.8211 C.3      61        0    0.0000
    369 H          77.3793  136.6165   77.3190 H        61        0    0.0000
    370 H          77.8565  135.3279   78.4190 H        61        0    0.0000
    371 H          78.9569  138.1872   78.3037 H        61        0    0.0000
    372 H          78.1186  137.4146   79.6448 H        61        0    0.0000
    373 C          80.1953  136.7767   79.4202 C.3      62        0    0.0000
    374 C          80.7607  137.7979   80.4134 C.3      62        0    0.0000
    375 H          80.0637  135.8055   79.9132 H        62        0    0.0000
    376 H          80.9043  136.6192   78.5980 H        62        0    0.0000
    377 H          81.7220  137.4463   80.8081 H        62        0    0.0000
    378 H          80.9584  138.7489   79.9035 H        62        0    0.0000
    379 C          79.7875  138.0609   81.6139 C.3      63        0    0.0000
    380 C          80.5221  138.5826   82.8537 C.3      63        0    0.0000
    381 H          79.0234  138.7820   81.2982 H        63        0    0.0000
    382 H          79.2610  137.1286   81.8531 H        63        0    0.0000
    383 H          81.4964  138.0874   82.9497 H        63        0    0.0000
    384 H          80.7233  139.6559   82.7479 H        63        0    0.0000
    385 C          79.7046  138.3491   84.1708 C.3      64        0    0.0000
    386 C          80.4932  138.7495   85.4225 C.3      64        0    0.0000
    387 H          78.7716  138.9234   84.1143 H        64        0    0.0000
    388 H          79.4204  137.2910   84.2277 H        64        0    0.0000
    389 H          81.4603  138.2318   85.4395 H        64        0    0.0000
    390 H          80.7117  139.8244   85.4017 H        64        0    0.0000
    391 C          79.7187  138.4168   86.7442 C.3      65        0    0.0000
    392 C          80.5182  138.7934   87.9965 C.3      65        0    0.0000
    393 H          78.7598  138.9497   86.7358 H        65        0    0.0000
    394 H          79.4836  137.3453   86.7562 H        65        0    0.0000
    395 H          81.4823  138.2699   87.9986 H        65        0    0.0000
    396 H          80.7427  139.8672   87.9906 H        65        0    0.0000
    397 C          79.7510  138.4447   89.3183 C.3      66        0    0.0000
    398 C          80.5530  138.8158   90.5705 C.3      66        0    0.0000
    399 H          78.7887  138.9716   89.3181 H        66        0    0.0000
    400 H          79.5226  137.3717   89.3221 H        66        0    0.0000
    401 H          81.5160  138.2901   90.5699 H        66        0    0.0000
    402 H          80.7800  139.8891   90.5676 H        66        0    0.0000
    403 C          79.7868  138.4650   91.8924 C.3      67        0    0.0000
    404 C          80.5912  138.8308   93.1446 C.3      67        0    0.0000
    405 H          78.8256  138.9939   91.8949 H        67        0    0.0000
    406 H          79.5562  137.3924   91.8935 H        67        0    0.0000
    407 H          81.5532  138.3034   93.1412 H        67        0    0.0000
    408 H          80.8203  139.9037   93.1445 H        67        0    0.0000
    409 C          79.8261  138.4776   94.4665 C.3      68        0    0.0000
    410 C          80.6275  138.8499   95.7187 C.3      68        0    0.0000
    411 H          78.8620  139.0011   94.4676 H        68        0    0.0000
    412 H          79.6016  137.4038   94.4690 H        68        0    0.0000
    413 H          81.5909  138.3249   95.7186 H        68        0    0.0000
    414 H          80.8538  139.9234   95.7153 H        68        0    0.0000
    415 C          79.8612  138.4992   97.0406 C.3      69        0    0.0000
    416 C          80.6657  138.8650   98.2928 C.3      69        0    0.0000
    417 H          78.9001  139.0283   97.0430 H        69        0    0.0000
    418 H          79.6305  137.4267   97.0416 H        69        0    0.0000
    419 H          81.6275  138.3374   98.2894 H        69        0    0.0000
    420 H          80.8949  139.9378   98.2926 H        69        0    0.0000
    421 C          79.9005  138.5120   99.6146 C.3      70        0    0.0000
    422 C          80.7028  138.8823  100.8669 C.3      70        0    0.0000
    423 H          78.9370  139.0367   99.6164 H        70        0    0.0000
    424 H          79.6745  137.4384   99.6165 H        70        0    0.0000
    425 H          81.6651  138.3555  100.8665 H        70        0    0.0000
    426 H          80.9311  139.9554  100.8636 H        70        0    0.0000
    427 C          79.9360  138.5329  102.1887 C.3      71        0    0.0000
    428 C          80.7411  138.8972  103.4410 C.3      71        0    0.0000
    429 H          78.9758  139.0636  102.1913 H        71        0    0.0000
    430 H          79.7034  137.4608  102.1898 H        71        0    0.0000
    431 H          81.7020  138.3680  103.4375 H        71        0    0.0000
    432 H          80.9721  139.9697  103.4409 H        71        0    0.0000
    433 C          79.9753  138.5454  104.7628 C.3      72        0    0.0000
    434 C          80.7772  138.9167  106.0151 C.3      72        0    0.0000
    435 H          79.0119  139.0702  104.7637 H        72        0    0.0000
    436 H          79.7492  137.4719  104.7655 H        72        0    0.0000
    437 H          81.7399  138.3906  106.0150 H        72        0    0.0000
    438 H          81.0047  139.9899  106.0115 H        72        0    0.0000
    439 C          80.0104  138.5671  107.3369 C.3      73        0    0.0000
    440 C          80.8157  138.9312  108.5891 C.3      73        0    0.0000
    441 H          79.0503  139.0977  107.3396 H        73        0    0.0000
    442 H          79.7779  137.4949  107.3378 H        73        0    0.0000
    443 H          81.7764  138.4016  108.5858 H        73        0    0.0000
    444 H          81.0471  140.0036  108.5889 H        73        0    0.0000
    445 C          80.0497  138.5799  109.9110 C.3      74        0    0.0000
    446 C          80.8507  138.9530  111.1632 C.3      74        0    0.0000
    447 H          79.0858  139.1039  109.9111 H        74        0    0.0000
    448 H          79.8245  137.5062  109.9145 H        74        0    0.0000
    449 H          81.8154  138.4305  111.1622 H        74        0    0.0000
    450 H          81.0742  140.0271  111.1607 H        74        0    0.0000
    451 C          80.0859  138.5992  112.4851 C.3      75        0    0.0000
    452 C          80.8866  138.9730  113.7374 C.3      75        0    0.0000
    453 H          79.1210  139.1212  112.4859 H        75        0    0.0000
    454 H          79.8629  137.5250  112.4879 H        75        0    0.0000
    455 H          81.8509  138.4498  113.7373 H        75        0    0.0000
    456 H          81.1109  140.0469  113.7337 H        75        0    0.0000
    457 C          80.1209  138.6211  115.0592 C.3      76        0    0.0000
    458 C          80.9259  138.9857  116.3114 C.3      76        0    0.0000
    459 H          79.1598  139.1501  115.0626 H        76        0    0.0000
    460 H          79.8902  137.5486  115.0594 H        76        0    0.0000
    461 H          81.8874  138.4576  116.3075 H        76        0    0.0000
    462 H          81.1557  140.0585  116.3117 H        76        0    0.0000
    463 C          80.1607  138.6325  117.6333 C.3      77        0    0.0000
    464 C          80.9640  139.0009  118.8855 C.3      77        0    0.0000
    465 H          79.1979  139.1584  117.6358 H        77        0    0.0000
    466 H          79.9335  137.5592  117.6343 H        77        0    0.0000
    467 H          81.9248  138.4713  118.8854 H        77        0    0.0000
    468 H          81.1955  140.0733  118.8820 H        77        0    0.0000
    469 C          80.1960  138.6541  120.2074 C.3      78        0    0.0000
    470 C          81.0174  138.9809  121.4593 C.3      78        0    0.0000
    471 H          79.2499  139.2094  120.2227 H        78        0    0.0000
    472 H          79.9356  137.5884  120.1959 H        78        0    0.0000
    473 H          81.1028  140.0679  121.5800 H        78        0    0.0000
    474 H          80.5062  138.6038  122.3537 H        78        0    0.0000
    475 C          82.4575  138.3642  121.4027 C.3      79        0    0.0000
    476 C          82.7417  137.4420  122.5934 C.3      79        0    0.0000
    477 H          82.5679  137.8095  120.4626 H        79        0    0.0000
    478 H          83.1907  139.1798  121.3752 H        79        0    0.0000
    479 H          82.6313  137.9966  123.5335 H        79        0    0.0000
    480 H          82.0086  136.6263  122.6209 H        79        0    0.0000
    481 H          83.7430  137.0132  122.5541 H        79        0    0.0000
    482 H          49.2798   87.8287  -40.4349 H         0        0    0.0000
@<TRIPOS>BOND
     1     1     2      1
     2     1     3      1
     3     1     4      1
     4     1   482      H
     5     2     5      1
     6     2     6      1
     7     2     7      1
     8     7     8      1
     9     7     9      1
    10     7    10      1
    11     8    11      1
    12     8    12      1
    13     8    13      1
    14    13    14      1
    15    13    15      1
    16    13    16      1
    17    14    17      1
    18    14    18      1
    19    14    19      1
    20    19    20      1
    21    19    21      1
    22    19    22      1
    23    20    23      1
    24    20    24      1
    25    20    25      1
    26    25    26      1
    27    25    27      1
    28    25    28      1
    29    26    29      1
    30    26    30      1
    31    26    31      1
    32    31    32      1
    33    31    33      1
    34    31    34      1
    35    32    35      1
    36    32    36      1
    37    32    37      1
    38    37    38      1
    39    37    39      1
    40    37    40      1
    41    38    41      1
    42    38    42      1
    43    38    43      1
    44    43    44      1
    45    43    45      1
    46    43    46      1
    47    44    47      1
    48    44    48      1
    49    44    49      1
    50    49    50      1
    51    49    51      1
    52    49    52      1
    53    50    53      1
    54    50    54      1
    55    50    55      1
    56    55    56      1
    57    55    57      1
    58    55    58      1
    59    56    59      1
    60    56    60      1
    61    56    61      1
    62    61    62      1
    63    61    63      1
    64    61    64      1
    65    62    65      1
    66    62    66      1
    67    62    67      1
    68    67    68      1
    69    67    69      1
    70    67    70      1
    71    68    71      1
    72    68    72      1
    73    68    73      1
    74    73    74      1
    75    73    75      1
    76    73    76      1
    77    74    77      1
    78    74    78      1
    79    74    79      1
    80    79    80      1
    81    79    81      1
    82    79    82      1
    83    80    83      1
    84    80    84      1
    85    80    85      1
    86    85    86      1
    87    85    87      1
    88    85    88      1
    89    86    89      1
    90    86    90      1
    91    86    91      1
    92    91    92      1
    93    91    93      1
    94    91    94      1
    95    92    95      1
    96    92    96      1
    97    92    97      1
    98    97    98      1
    99    97    99      1
   100    97   100      1
   101    98   101      1
   102    98   102      1
   103    98   103      1
   104   103   104      1
   105   103   105      1
   106   103   106      1
   107   104   107      1
   108   104   108      1
   109   104   109      1
   110   109   110      1
   111   109   111      1
   112   109   112      1
   113   110   113      1
   114   110   114      1
   115   110   115      1
   116   115   116      1
   117   115   117      1
   118   115   118      1
   119   116   119      1
   120   116   120      1
   121   116   121      1
   122   121   122      1
   123   121   123      1
   124   121   124      1
   125   122   125      1
   126   122   126      1
   127   122   127      1
   128   127   128      1
   129   127   129      1
   130   127   130      1
   131   128   131      1
   132   128   132      1
   133   128   133      1
   134   133   134      1
   135   133   135      1
   136   133   136      1
   137   134   137      1
   138   134   138      1
   139   134   139      1
   140   139   140      1
   141   139   141      1
   142   139   142      1
   143   140   143      1
   144   140   144      1
   145   140   145      1
   146   145   146      1
   147   145   147      1
   148   145   148      1
   149   146   149      1
   150   146   150      1
   151   146   151      1
   152   151   152      1
   153   151   153      1
   154   151   154      1
   155   152   155      1
   156   152   156      1
   157   152   157      1
   158   157   158      1
   159   157   159      1
   160   157   160      1
   161   158   161      1
   162   158   162      1
   163   158   163      1
   164   163   164      1
   165   163   165      1
   166   163   166      1
   167   164   167      1
   168   164   168      1
   169   164   169      1
   170   169   170      1
   171   169   171      1
   172   169   172      1
   173   170   173      1
   174   170   174      1
   175   170   175      1
   176   175   176      1
   177   175   177      1
   178   175   178      1
   179   176   179      1
   180   176   180      1
   181   176   181      1
   182   181   182      1
   183   181   183      1
   184   181   184      1
   185   182   185      1
   186   182   186      1
   187   182   187      1
   188   187   188      1
   189   187   189      1
   190   187   190      1
   191   188   191      1
   192   188   192      1
   193   188   193      1
   194   193   194      1
   195   193   195      1
   196   193   196      1
   197   194   197      1
   198   194   198      1
   199   194   199      1
   200   199   200      1
   201   199   201      1
   202   199   202      1
   203   200   203      1
   204   200   204      1
   205   200   205      1
   206   205   206      1
   207   205   207      1
   208   205   208      1
   209   206   209      1
   210   206   210      1
   211   206   211      1
   212   211   212      1
   213   211   213      1
   214   211   214      1
   215   212   215      1
   216   212   216      1
   217   212   217      1
   218   217   218      1
   219   217   219      1
   220   217   220      1
   221   218   221      1
   222   218   222      1
   223   218   223      1
   224   223   224      1
   225   223   225      1
   226   223   226      1
   227   224   227      1
   228   224   228      1
   229   224   229      1
   230   229   230      1
   231   229   231      1
   232   229   232      1
   233   230   233      1
   234   230   234      1
   235   230   235      1
   236   235   236      1
   237   235   237      1
   238   235   238      1
   239   236   239      1
   240   236   240      1
   241   236   241      1
   242   241   242      1
   243   241   243      1
   244   241   244      1
   245   242   245      1
   246   242   246      1
   247   242   247      1
   248   247   248      1
   249   247   249      1
   250   247   250      1
   251   248   251      1
   252   248   252      1
   253   248   253      1
   254   253   254      1
   255   253   255      1
   256   253   256      1
   257   254   257      1
   258   254   258      1
   259   254   259      1
   260   259   260      1
   261   259   261      1
   262   259   262      1
   263   260   263      1
   264   260   264      1
   265   260   265      1
   266   265   266      1
   267   265   267      1
   268   265   268      1
   269   266   269      1
   270   266   270      1
   271   266   271      1
   272   271   272      1
   273   271   273      1
   274   271   274      1
   275   272   275      1
   276   272   276      1
   277   272   277      1
   278   277   278      1
   279   277   279      1
   280   277   280      1
   281   278   281      1
   282   278   282      1
   283   278   283      1
   284   283   284      1
   285   283   285      1
   286   283   286      1
   287   284   287      1
   288   284   288      1
   289   284   289      1
   290   289   290      1
   291   289   291      1
   292   289   292      1
   293   290   293      1
   294   290   294      1
   295   290   295      1
   296   295   296      1
   297   295   297      1
   298   295   298      1
   299   296   299      1
   300   296   300      1
   301   296   301      1
   302   301   302      1
   303   301   303      1
   304   301   304      1
   305   302   305      1
   306   302   306      1
   307   302   307      1
   308   307   308      1
   309   307   309      1
   310   307   310      1
   311   308   311      1
   312   308   312      1
   313   308   313      1
   314   313   314      1
   315   313   315      1
   316   313   316      1
   317   314   317      1
   318   314   318      1
   319   314   319      1
   320   319   320      1
   321   319   321      1
   322   319   322      1
   323   320   323      1
   324   320   324      1
   325   320   325      1
   326   325   326      1
   327   325   327      1
   328   325   328      1
   329   326   329      1
   330   326   330      1
   331   326   331      1
   332   331   332      1
   333   331   333      1
   334   331   334      1
   335   332   335      1
   336   332   336      1
   337   332   337      1
   338   337   338      1
   339   337   339      1
   340   337   340      1
   341   338   341      1
   342   338   342      1
   343   338   343      1
   344   343   344      1
   345   343   345      1
   346   343   346      1
   347   344   347      1
   348   344   348      1
   349   344   349      1
   350   349   350      1
   351   349   351      1
   352   349   352      1
   353   350   353      1
   354   350   354      1
   355   350   355      1
   356   355   356      1
   357   355   357      1
   358   355   358      1
   359   356   359      1
   360   356   360      1
   361   356   361      1
   362   361   362      1
   363   361   363      1
   364   361   364      1
   365   362   365      1
   366   362   366      1
   367   362   367      1
   368   367   368      1
   369   367   369      1
   370   367   370      1
   371   368   371      1
   372   368   372      1
   373   368   373      1
   374   373   374      1
   375   373   375      1
   376   373   376      1
   377   374   377      1
   378   374   378      1
   379   374   379      1
   380   379   380      1
   381   379   381      1
   382   379   382      1
   383   380   383      1
   384   380   384      1
   385   380   385      1
   386   385   386      1
   387   385   387      1
   388   385   388      1
   389   386   389      1
   390   386   390      1
   391   386   391      1
   392   391   392      1
   393   391   393      1
   394   391   394      1
   395   392   395      1
   396   392   396      1
   397   392   397      1
   398   397   398      1
   399   397   399      1
   400   397   400      1
   401   398   401      1
   402   398   402      1
   403   398   403      1
   404   403   404      1
   405   403   405      1
   406   403   406      1
   407   404   407      1
   408   404   408      1
   409   404   409      1
   410   409   410      1
   411   409   411      1
   412   409   412      1
   413   410   413      1
   414   410   414      1
   415   410   415      1
   416   415   416      1
   417   415   417      1
   418   415   418      1
   419   416   419      1
   420   416   420      1
   421   416   421      1
   422   421   422      1
   423   421   423      1
   424   421   424      1
   425   422   425      1
   426   422   426      1
   427   422   427      1
   428   427   428      1
   429   427   429      1
   430   427   430      1
   431   428   431      1
   432   428   432      1
   433   428   433      1
   434   433   434      1
   435   433   435      1
   436   433   436      1
   437   434   437      1
   438   434   438      1
   439   434   439      1
   440   439   440      1
   441   439   441      1
   442   439   442      1
   443   440   443      1
   444   440   444      1
   445   440   445      1
   446   445   446      1
   447   445   447      1
   448   445   448      1
   449   446   449      1
   450   446   450      1
   451   446   451      1
   452   451   452      1
   453   451   453      1
   454   451   454      1
   455   452   455      1
   456   452   456      1
   457   452   457      1
   458   457   458      1
   459   457   459      1
   460   457   460      1
   461   458   461      1
   462   458   462      1
   463   458   463      1
   464   463   464      1
   465   463   465      1
   466   463   466      1
   467   464   467      1
   468   464   468      1
   469   464   469      1
   470   469   470      1
   471   469   471      1
   472   469   472      1
   473   470   473      1
   474   470   474      1
   475   470   475      1
   476   475   476      1
   477   475   477      1
   478   475   478      1
   479   476   479      1
   480   476   480      1
   481   476   481      H
