###
### Created by PolyChef-cpp17 on Thu Feb 27 19:40:30 2025
###

@<TRIPOS>MOLECULE
NO_INFO
158 157 1 0 0
SMALL
USER_CHARGES


@<TRIPOS>ATOM
      1 C          39.2798   70.5087  120.6551 C.3       0        0    0.0000
      2 C          38.4513   69.3575  120.0742 C.3       0        0    0.0000
      3 H          38.8875   71.4702  120.3015 H         0        0    0.0000
      4 H          40.3161   70.4421  120.3014 H         0        0    0.0000
      5 H          38.4072   68.5273  120.7900 H         0        0    0.0000
      6 H          37.4176   69.6848  119.9074 H         0        0    0.0000
      7 C          39.0381   68.8272  118.7207 C.3       1        0    0.0000
      8 C          39.6295   69.9518  117.8637 C.3       1        0    0.0000
      9 H          39.8074   68.0762  118.9390 H         1        0    0.0000
     10 H          38.2426   68.3118  118.1682 H         1        0    0.0000
     11 H          38.9339   70.7991  117.8228 H         1        0    0.0000
     12 H          40.5546   70.3255  118.3199 H         1        0    0.0000
     13 C          39.9412   69.4827  116.4007 C.3       2        0    0.0000
     14 C          39.8821   70.6380  115.3953 C.3       2        0    0.0000
     15 H          40.9350   69.0185  116.3824 H         2        0    0.0000
     16 H          39.2236   68.7020  116.1193 H         2        0    0.0000
     17 H          38.9612   71.2162  115.5405 H         2        0    0.0000
     18 H          40.7177   71.3281  115.5659 H         2        0    0.0000
     19 C          39.9355   70.1370  113.9109 C.3       3        0    0.0000
     20 C          39.8262   71.2882  112.9050 C.3       3        0    0.0000
     21 H          40.8737   69.5899  113.7559 H         3        0    0.0000
     22 H          39.1219   69.4188  113.7506 H         3        0    0.0000
     23 H          38.8933   71.8422  113.0673 H         3        0    0.0000
     24 H          40.6463   72.0006  113.0580 H         3        0    0.0000
     25 C          39.8637   70.7857  111.4206 C.3       4        0    0.0000
     26 C          39.8925   71.9430  110.4162 C.3       4        0    0.0000
     27 H          40.7461   70.1481  111.2852 H         4        0    0.0000
     28 H          38.9865   70.1522  111.2394 H         4        0    0.0000
     29 H          39.0004   72.5697  110.5386 H         4        0    0.0000
     30 H          40.7591   72.5874  110.6094 H         4        0    0.0000
     31 C          39.9572   71.4407  108.9326 C.3       5        0    0.0000
     32 C          38.9113   72.1212  108.0427 C.3       5        0    0.0000
     33 H          40.9643   71.6275  108.5397 H         5        0    0.0000
     34 H          39.8112   70.3534  108.9208 H         5        0    0.0000
     35 H          37.9499   72.1778  108.5682 H         5        0    0.0000
     36 H          39.2143   73.1535  107.8281 H         5        0    0.0000
     37 C          38.7019   71.3637  106.6863 C.3       6        0    0.0000
     38 C          39.0587   72.2322  105.4749 C.3       6        0    0.0000
     39 H          39.3154   70.4542  106.6909 H         6        0    0.0000
     40 H          37.6563   71.0381  106.6208 H         6        0    0.0000
     41 H          38.1811   72.8055  105.1516 H         6        0    0.0000
     42 H          39.8288   72.9635  105.7501 H         6        0    0.0000
     43 C          39.5794   71.3807  104.2661 C.3       7        0    0.0000
     44 C          38.9908   71.8477  102.9303 C.3       7        0    0.0000
     45 H          40.6744   71.4414  104.2364 H         7        0    0.0000
     46 H          39.3270   70.3274  104.4408 H         7        0    0.0000
     47 H          37.9052   71.9767  103.0222 H         7        0    0.0000
     48 H          39.4027   72.8278  102.6598 H         7        0    0.0000
     49 C          39.2829   70.8383  101.7670 C.3       8        0    0.0000
     50 C          39.1169   71.4805  100.3853 C.3       8        0    0.0000
     51 H          40.3032   70.4518  101.8821 H         8        0    0.0000
     52 H          38.6077   69.9794  101.8662 H         8        0    0.0000
     53 H          38.0748   71.7897  100.2370 H         8        0    0.0000
     54 H          39.7279   72.3891  100.3170 H         8        0    0.0000
     55 C          39.5255   70.5084   99.2254 C.3       9        0    0.0000
     56 C          39.2786   71.1192   97.8415 C.3       9        0    0.0000
     57 H          40.5854   70.2488   99.3383 H         9        0    0.0000
     58 H          38.9594   69.5745   99.3308 H         9        0    0.0000
     59 H          38.2223   71.3956   97.7354 H         9        0    0.0000
     60 H          39.8589   72.0434   97.7294 H         9        0    0.0000
     61 C          39.6630   70.1373   96.6816 C.3      10        0    0.0000
     62 C          39.4196   70.7494   95.2977 C.3      10        0    0.0000
     63 H          40.7187   69.8588   96.7893 H        10        0    0.0000
     64 H          39.0808   69.2141   96.7922 H        10        0    0.0000
     65 H          38.3634   71.0254   95.1890 H        10        0    0.0000
     66 H          39.9997   71.6740   95.1880 H        10        0    0.0000
     67 C          39.8075   69.7688   94.1377 C.3      11        0    0.0000
     68 C          39.5634   70.3807   92.7539 C.3      11        0    0.0000
     69 H          40.8638   69.4932   94.2461 H        11        0    0.0000
     70 H          39.2277   68.8440   94.2477 H        11        0    0.0000
     71 H          38.5074   70.6580   92.6462 H        11        0    0.0000
     72 H          40.1446   71.3046   92.6432 H        11        0    0.0000
     73 C          39.9489   69.3993   91.5939 C.3      12        0    0.0000
     74 C          39.7100   70.0132   90.2101 C.3      12        0    0.0000
     75 H          41.0038   69.1188   91.7040 H        12        0    0.0000
     76 H          39.3647   68.4770   91.7022 H        12        0    0.0000
     77 H          38.6548   70.2922   90.0994 H        12        0    0.0000
     78 H          40.2928   70.9363   90.1024 H        12        0    0.0000
     79 C          40.0977   69.0326   89.0501 C.3      13        0    0.0000
     80 C          39.8560   69.6454   87.6662 C.3      13        0    0.0000
     81 H          41.1535   68.7553   89.1595 H        13        0    0.0000
     82 H          39.5164   68.1086   89.1591 H        13        0    0.0000
     83 H          38.7995   69.9198   87.5557 H        13        0    0.0000
     84 H          40.4348   70.5711   87.5584 H        13        0    0.0000
     85 C          40.2477   68.6664   86.5063 C.3      14        0    0.0000
     86 C          40.0015   69.2775   85.1224 C.3      14        0    0.0000
     87 H          41.3051   68.3947   86.6148 H        14        0    0.0000
     88 H          39.6714   67.7394   86.6161 H        14        0    0.0000
     89 H          38.9445   69.5508   85.0146 H        14        0    0.0000
     90 H          40.5793   70.2035   85.0119 H        14        0    0.0000
     91 C          40.3909   68.2975   83.9624 C.3      15        0    0.0000
     92 C          40.1431   68.9079   82.5786 C.3      15        0    0.0000
     93 H          41.4482   68.0251   84.0696 H        15        0    0.0000
     94 H          39.8140   67.3710   84.0737 H        15        0    0.0000
     95 H          39.0793   69.1478   82.4583 H        15        0    0.0000
     96 H          40.6921   69.8526   82.4804 H        15        0    0.0000
     97 C          40.5787   67.9473   81.4189 C.3      16        0    0.0000
     98 C          40.3284   68.5567   80.0350 C.3      16        0    0.0000
     99 H          41.6429   67.7090   81.5381 H        16        0    0.0000
    100 H          40.0310   67.0019   81.5183 H        16        0    0.0000
    101 H          40.7958   67.9359   79.2606 H        16        0    0.0000
    102 H          39.2528   68.5721   79.8197 H        16        0    0.0000
    103 C          40.8879   70.0164   79.9186 C.3      17        0    0.0000
    104 C          40.4116   70.7210   78.6436 C.3      17        0    0.0000
    105 H          40.5757   70.5863   80.8024 H        17        0    0.0000
    106 H          41.9841   69.9776   79.9398 H        17        0    0.0000
    107 H          39.6299   71.4512   78.8870 H        17        0    0.0000
    108 H          41.2389   71.2835   78.1932 H        17        0    0.0000
    109 C          39.8491   69.7134   77.5826 C.3      18        0    0.0000
    110 C          39.4713   70.4048   76.2680 C.3      18        0    0.0000
    111 H          40.6028   68.9382   77.3968 H        18        0    0.0000
    112 H          38.9733   69.2063   78.0061 H        18        0    0.0000
    113 H          39.1743   69.6575   75.5218 H        18        0    0.0000
    114 H          38.6035   71.0580   76.4224 H        18        0    0.0000
    115 C          40.6497   71.2593   75.6861 C.3      19        0    0.0000
    116 C          40.2601   71.9802   74.3909 C.3      19        0    0.0000
    117 H          40.9647   71.9888   76.4425 H        19        0    0.0000
    118 H          41.5087   70.6010   75.5064 H        19        0    0.0000
    119 H          39.5941   72.8226   74.6150 H        19        0    0.0000
    120 H          41.1524   72.4027   73.9125 H        19        0    0.0000
    121 C          39.5443   71.0271   73.3727 C.3      20        0    0.0000
    122 C          38.8290   71.7992   72.2586 C.3      20        0    0.0000
    123 H          40.2892   70.3473   72.9409 H        20        0    0.0000
    124 H          38.8263   70.4022   73.9181 H        20        0    0.0000
    125 H          37.9639   72.3354   72.6680 H        20        0    0.0000
    126 H          39.4994   72.5583   71.8368 H        20        0    0.0000
    127 C          38.3403   70.8589   71.1034 C.3      21        0    0.0000
    128 C          37.7302   71.6420   69.9357 C.3      21        0    0.0000
    129 H          39.1895   70.2599   70.7518 H        21        0    0.0000
    130 H          37.6040   70.1539   71.5090 H        21        0    0.0000
    131 H          36.8249   72.1661   70.2665 H        21        0    0.0000
    132 H          38.4320   72.4119   69.5917 H        21        0    0.0000
    133 C          37.3640   70.7152   68.7257 C.3      22        0    0.0000
    134 C          36.8077   71.5056   67.5362 C.3      22        0    0.0000
    135 H          38.2598   70.1594   68.4221 H        22        0    0.0000
    136 H          36.6298   69.9715   69.0595 H        22        0    0.0000
    137 H          35.8965   72.0398   67.8325 H        22        0    0.0000
    138 H          37.5308   72.2675   67.2197 H        22        0    0.0000
    139 C          36.4773   70.5833   66.3123 C.3      23        0    0.0000
    140 C          35.9272   71.3745   65.1206 C.3      23        0    0.0000
    141 H          37.3875   70.0455   66.0190 H        23        0    0.0000
    142 H          35.7507   69.8242   66.6276 H        23        0    0.0000
    143 H          35.0132   71.9066   65.4120 H        23        0    0.0000
    144 H          36.6509   72.1382   64.8098 H        23        0    0.0000
    145 C          35.6061   70.4535   63.8933 C.3      24        0    0.0000
    146 C          35.0494   71.2438   62.7040 C.3      24        0    0.0000
    147 H          36.5213   69.9252   63.5987 H        24        0    0.0000
    148 H          34.8863   69.6867   64.2054 H        24        0    0.0000
    149 H          35.8446   71.8457   62.2470 H        24        0    0.0000
    150 H          34.6911   70.5547   61.9291 H        24        0    0.0000
    151 C          33.8729   72.1927   63.1196 C.3      25        0    0.0000
    152 C          32.5858   71.8972   62.3416 C.3      25        0    0.0000
    153 H          33.6947   72.0842   64.1966 H        25        0    0.0000
    154 H          34.1819   73.2323   62.9545 H        25        0    0.0000
    155 H          32.7640   72.0057   61.2646 H        25        0    0.0000
    156 H          32.2768   70.8576   62.5067 H        25        0    0.0000
    157 H          31.7678   72.5571   62.6306 H        25        0    0.0000
    158 H          39.2798   70.5087  121.7450 H         0        0    0.0000
@<TRIPOS>BOND
     1     1     2      1
     2     1     3      1
     3     1     4      1
     4     1   158      H
     5     2     5      1
     6     2     6      1
     7     2     7      1
     8     7     8      1
     9     7     9      1
    10     7    10      1
    11     8    11      1
    12     8    12      1
    13     8    13      1
    14    13    14      1
    15    13    15      1
    16    13    16      1
    17    14    17      1
    18    14    18      1
    19    14    19      1
    20    19    20      1
    21    19    21      1
    22    19    22      1
    23    20    23      1
    24    20    24      1
    25    20    25      1
    26    25    26      1
    27    25    27      1
    28    25    28      1
    29    26    29      1
    30    26    30      1
    31    26    31      1
    32    31    32      1
    33    31    33      1
    34    31    34      1
    35    32    35      1
    36    32    36      1
    37    32    37      1
    38    37    38      1
    39    37    39      1
    40    37    40      1
    41    38    41      1
    42    38    42      1
    43    38    43      1
    44    43    44      1
    45    43    45      1
    46    43    46      1
    47    44    47      1
    48    44    48      1
    49    44    49      1
    50    49    50      1
    51    49    51      1
    52    49    52      1
    53    50    53      1
    54    50    54      1
    55    50    55      1
    56    55    56      1
    57    55    57      1
    58    55    58      1
    59    56    59      1
    60    56    60      1
    61    56    61      1
    62    61    62      1
    63    61    63      1
    64    61    64      1
    65    62    65      1
    66    62    66      1
    67    62    67      1
    68    67    68      1
    69    67    69      1
    70    67    70      1
    71    68    71      1
    72    68    72      1
    73    68    73      1
    74    73    74      1
    75    73    75      1
    76    73    76      1
    77    74    77      1
    78    74    78      1
    79    74    79      1
    80    79    80      1
    81    79    81      1
    82    79    82      1
    83    80    83      1
    84    80    84      1
    85    80    85      1
    86    85    86      1
    87    85    87      1
    88    85    88      1
    89    86    89      1
    90    86    90      1
    91    86    91      1
    92    91    92      1
    93    91    93      1
    94    91    94      1
    95    92    95      1
    96    92    96      1
    97    92    97      1
    98    97    98      1
    99    97    99      1
   100    97   100      1
   101    98   101      1
   102    98   102      1
   103    98   103      1
   104   103   104      1
   105   103   105      1
   106   103   106      1
   107   104   107      1
   108   104   108      1
   109   104   109      1
   110   109   110      1
   111   109   111      1
   112   109   112      1
   113   110   113      1
   114   110   114      1
   115   110   115      1
   116   115   116      1
   117   115   117      1
   118   115   118      1
   119   116   119      1
   120   116   120      1
   121   116   121      1
   122   121   122      1
   123   121   123      1
   124   121   124      1
   125   122   125      1
   126   122   126      1
   127   122   127      1
   128   127   128      1
   129   127   129      1
   130   127   130      1
   131   128   131      1
   132   128   132      1
   133   128   133      1
   134   133   134      1
   135   133   135      1
   136   133   136      1
   137   134   137      1
   138   134   138      1
   139   134   139      1
   140   139   140      1
   141   139   141      1
   142   139   142      1
   143   140   143      1
   144   140   144      1
   145   140   145      1
   146   145   146      1
   147   145   147      1
   148   145   148      1
   149   146   149      1
   150   146   150      1
   151   146   151      1
   152   151   152      1
   153   151   153      1
   154   151   154      1
   155   152   155      1
   156   152   156      1
   157   152   157      H
