###
### Created by PolyChef-cpp17 on Thu Feb 27 19:40:30 2025
###

@<TRIPOS>MOLECULE
NO_INFO
170 169 1 0 0
SMALL
USER_CHARGES


@<TRIPOS>ATOM
      1 C           9.2798   87.8287  120.6551 C.3       0        0    0.0000
      2 C           8.4513   86.6775  120.0742 C.3       0        0    0.0000
      3 H           8.8875   88.7902  120.3015 H         0        0    0.0000
      4 H          10.3161   87.7621  120.3014 H         0        0    0.0000
      5 H           8.4065   85.8476  120.7903 H         0        0    0.0000
      6 H           7.4178   87.0050  119.9066 H         0        0    0.0000
      7 C           9.0387   86.1464  118.7213 C.3       1        0    0.0000
      8 C           9.6375   87.2695  117.8674 C.3       1        0    0.0000
      9 H           9.8040   85.3915  118.9402 H         1        0    0.0000
     10 H           8.2421   85.6357  118.1662 H         1        0    0.0000
     11 H           8.9476   88.1216  117.8291 H         1        0    0.0000
     12 H          10.5652   87.6356  118.3243 H         1        0    0.0000
     13 C           9.9455   86.8026  116.4029 C.3       2        0    0.0000
     14 C           9.8896   87.9604  115.4002 C.3       2        0    0.0000
     15 H          10.9375   86.3347  116.3823 H         2        0    0.0000
     16 H           9.2246   86.0253  116.1206 H         2        0    0.0000
     17 H           8.9697   88.5402  115.5461 H         2        0    0.0000
     18 H          10.7264   88.6484  115.5731 H         2        0    0.0000
     19 C           9.9430   87.4629  113.9146 C.3       3        0    0.0000
     20 C           9.8161   88.6146  112.9114 C.3       3        0    0.0000
     21 H          10.8870   86.9272  113.7549 H         3        0    0.0000
     22 H           9.1373   86.7354  113.7561 H         3        0    0.0000
     23 H           8.8779   89.1579  113.0793 H         3        0    0.0000
     24 H          10.6290   89.3358  113.0617 H         3        0    0.0000
     25 C           9.8519   88.1152  111.4259 C.3       4        0    0.0000
     26 C           9.9231   89.2738  110.4251 C.3       4        0    0.0000
     27 H          10.7165   87.4526  111.2964 H         4        0    0.0000
     28 H           8.9583   87.5080  111.2353 H         4        0    0.0000
     29 H           9.0425   89.9191  110.5334 H         4        0    0.0000
     30 H          10.7996   89.8992  110.6354 H         4        0    0.0000
     31 C          10.0036   88.7735  108.9417 C.3       5        0    0.0000
     32 C           8.9810   89.4703  108.0374 C.3       5        0    0.0000
     33 H          11.0191   88.9470  108.5646 H         5        0    0.0000
     34 H           9.8425   87.6885  108.9252 H         5        0    0.0000
     35 H           8.0162   89.5515  108.5534 H         5        0    0.0000
     36 H           9.3084   90.4943  107.8186 H         5        0    0.0000
     37 C           8.7677   88.7081  106.6843 C.3       6        0    0.0000
     38 C           9.1746   89.5525  105.4716 C.3       6        0    0.0000
     39 H           9.3490   87.7779  106.7070 H         6        0    0.0000
     40 H           7.7127   88.4184  106.6040 H         6        0    0.0000
     41 H           8.3280   90.1661  105.1395 H         6        0    0.0000
     42 H           9.9773   90.2468  105.7489 H         6        0    0.0000
     43 C           9.6616   88.6709  104.2703 C.3       7        0    0.0000
     44 C           9.1342   89.1805  102.9245 C.3       7        0    0.0000
     45 H          10.7586   88.6573  104.2636 H         7        0    0.0000
     46 H           9.3347   87.6368  104.4352 H         7        0    0.0000
     47 H           8.0572   89.3777  102.9929 H         7        0    0.0000
     48 H           9.6134   90.1338  102.6693 H         7        0    0.0000
     49 C           9.3882   88.1600  101.7619 C.3       8        0    0.0000
     50 C           9.2360   88.8045  100.3797 C.3       8        0    0.0000
     51 H          10.3962   87.7414  101.8729 H         8        0    0.0000
     52 H           8.6864   87.3233  101.8662 H         8        0    0.0000
     53 H           8.2073   89.1596  100.2415 H         8        0    0.0000
     54 H           9.8863   89.6846  100.3014 H         8        0    0.0000
     55 C           9.5881   87.8113   99.2191 C.3       9        0    0.0000
     56 C           9.3883   88.4402   97.8358 C.3       9        0    0.0000
     57 H          10.6286   87.4843   99.3369 H         9        0    0.0000
     58 H           8.9631   86.9152   99.3187 H         9        0    0.0000
     59 H           8.3513   88.7802   97.7233 H         9        0    0.0000
     60 H          10.0240   89.3281   97.7308 H         9        0    0.0000
     61 C           9.7210   87.4406   96.6750 C.3      10        0    0.0000
     62 C           9.5209   88.0694   95.2917 C.3      10        0    0.0000
     63 H          10.7580   87.1008   96.7873 H        10        0    0.0000
     64 H           9.0854   86.5526   96.7800 H        10        0    0.0000
     65 H           8.4857   88.4158   95.1821 H        10        0    0.0000
     66 H          10.1619   88.9531   95.1839 H        10        0    0.0000
     67 C           9.8436   87.0664   94.1308 C.3      11        0    0.0000
     68 C           9.6487   87.6969   92.7475 C.3      11        0    0.0000
     69 H          10.8774   86.7170   94.2427 H        11        0    0.0000
     70 H           9.1998   86.1845   94.2364 H        11        0    0.0000
     71 H           8.6155   88.0488   92.6367 H        11        0    0.0000
     72 H          10.2945   88.5773   92.6410 H        11        0    0.0000
     73 C           9.9677   86.6928   91.5867 C.3      12        0    0.0000
     74 C           9.7764   87.3245   90.2034 C.3      12        0    0.0000
     75 H          10.9999   86.3388   91.6991 H        12        0    0.0000
     76 H           9.3199   85.8137   91.6916 H        12        0    0.0000
     77 H           8.7460   87.6848   90.0936 H        12        0    0.0000
     78 H          10.4293   88.1996   90.0960 H        12        0    0.0000
     79 C          10.0860   86.3175   89.0425 C.3      13        0    0.0000
     80 C           9.8929   86.9486   87.6592 C.3      13        0    0.0000
     81 H          11.1169   85.9583   89.1515 H        13        0    0.0000
     82 H           9.4342   85.4418   89.1508 H        13        0    0.0000
     83 H           8.8614   87.3056   87.5493 H        13        0    0.0000
     84 H          10.5430   87.8258   87.5519 H        13        0    0.0000
     85 C          10.2058   85.9426   86.4984 C.3      14        0    0.0000
     86 C          10.0087   86.5725   85.1151 C.3      14        0    0.0000
     87 H          11.2384   85.5880   86.6065 H        14        0    0.0000
     88 H           9.5579   85.0641   86.6075 H        14        0    0.0000
     89 H           8.9748   86.9225   85.0051 H        14        0    0.0000
     90 H          10.6528   87.4540   85.0078 H        14        0    0.0000
     91 C          10.3285   85.5687   83.9542 C.3      15        0    0.0000
     92 C          10.1394   86.2010   82.5710 C.3      15        0    0.0000
     93 H          11.3604   85.2139   84.0678 H        15        0    0.0000
     94 H           9.6800   84.6899   84.0579 H        15        0    0.0000
     95 H           9.1338   86.6319   82.4886 H        15        0    0.0000
     96 H          10.8482   87.0272   82.4350 H        15        0    0.0000
     97 C          10.3419   85.1655   81.4116 C.3      16        0    0.0000
     98 C          10.1591   85.7993   80.0282 C.3      16        0    0.0000
     99 H          11.3457   84.7312   81.4967 H        16        0    0.0000
    100 H           9.6298   84.3416   81.5450 H        16        0    0.0000
    101 H          11.0127   86.4481   79.7959 H        16        0    0.0000
    102 H          10.1372   85.0193   79.2570 H        16        0    0.0000
    103 C           8.8417   86.6433   79.9307 C.3      17        0    0.0000
    104 C           8.4453   86.9359   78.4794 C.3      17        0    0.0000
    105 H           8.0353   86.1001   80.4387 H        17        0    0.0000
    106 H           8.9825   87.5831   80.4789 H        17        0    0.0000
    107 H           8.7994   87.9319   78.1862 H        17        0    0.0000
    108 H           8.9293   86.2183   77.8053 H        17        0    0.0000
    109 C           6.8944   86.8668   78.2617 C.3      18        0    0.0000
    110 C           6.4947   87.2006   76.8202 C.3      18        0    0.0000
    111 H           6.5447   85.8610   78.5256 H        18        0    0.0000
    112 H           6.4083   87.5619   78.9574 H        18        0    0.0000
    113 H           6.8049   86.3919   76.1469 H        18        0    0.0000
    114 H           5.4031   87.2758   76.7403 H        18        0    0.0000
    115 C           7.1315   88.5441   76.3232 C.3      19        0    0.0000
    116 C           6.8506   88.8061   74.8394 C.3      19        0    0.0000
    117 H           6.7385   89.3681   76.9316 H        19        0    0.0000
    118 H           8.2135   88.5096   76.5008 H        19        0    0.0000
    119 H           7.4136   88.0977   74.2192 H        19        0    0.0000
    120 H           5.7881   88.6393   74.6226 H        19        0    0.0000
    121 C           7.2306   90.2655   74.4114 C.3      20        0    0.0000
    122 C           6.7474   90.6001   72.9959 C.3      20        0    0.0000
    123 H           6.7979   90.9696   75.1329 H        20        0    0.0000
    124 H           8.3199   90.3800   74.4740 H        20        0    0.0000
    125 H           7.2730   89.9769   72.2619 H        20        0    0.0000
    126 H           5.6795   90.3687   72.8985 H        20        0    0.0000
    127 C           6.9730   92.1082   72.6322 C.3      21        0    0.0000
    128 C           6.2802   92.4996   71.3223 C.3      21        0    0.0000
    129 H           6.6001   92.7301   73.4554 H        21        0    0.0000
    130 H           8.0512   92.2967   72.5584 H        21        0    0.0000
    131 H           5.3943   93.1112   71.5334 H        21        0    0.0000
    132 H           6.9510   93.1169   70.7119 H        21        0    0.0000
    133 C           5.8428   91.2488   70.4847 C.3      22        0    0.0000
    134 C           4.8350   91.6081   69.3873 C.3      22        0    0.0000
    135 H           6.7354   90.7910   70.0405 H        22        0    0.0000
    136 H           5.4104   90.5027   71.1628 H        22        0    0.0000
    137 H           4.3490   92.5634   69.6211 H        22        0    0.0000
    138 H           5.3537   91.7444   68.4302 H        22        0    0.0000
    139 C           3.7310   90.5091   69.2116 C.3      23        0    0.0000
    140 C           2.7775   90.8235   68.0536 C.3      23        0    0.0000
    141 H           4.2192   89.5410   69.0447 H        23        0    0.0000
    142 H           3.1679   90.4205   70.1490 H        23        0    0.0000
    143 H           2.0648   91.6016   68.3538 H        23        0    0.0000
    144 H           3.3402   91.2237   67.2011 H        23        0    0.0000
    145 C           1.9778   89.5601   67.5828 C.3      24        0    0.0000
    146 C           1.0282   89.8733   66.4212 C.3      24        0    0.0000
    147 H           2.6905   88.7806   67.2863 H        24        0    0.0000
    148 H           1.4120   89.1622   68.4343 H        24        0    0.0000
    149 H           0.6115   88.9434   66.0148 H        24        0    0.0000
    150 H           0.1794   90.4689   66.7793 H        24        0    0.0000
    151 C           1.7418   90.6550   65.2648 C.3      25        0    0.0000
    152 C           0.7783   91.0218   64.1307 C.3      25        0    0.0000
    153 H           2.1971   91.5627   65.6799 H        25        0    0.0000
    154 H           2.5630   90.0399   64.8764 H        25        0    0.0000
    155 H           0.7015   92.1124   64.0404 H        25        0    0.0000
    156 H           1.1664   90.6529   63.1732 H        25        0    0.0000
    157 C          -0.6563   90.4312   64.3557 C.3      26        0    0.0000
    158 C          -1.4954   90.4392   63.0732 C.3      26        0    0.0000
    159 H          -0.5613   89.4068   64.7366 H        26        0    0.0000
    160 H          -1.1595   91.0128   65.1380 H        26        0    0.0000
    161 H          -2.5531   90.5994   63.3166 H        26        0    0.0000
    162 H          -1.1905   91.2735   62.4293 H        26        0    0.0000
    163 C          -1.3596   89.1022   62.2660 C.3      27        0    0.0000
    164 C          -2.6931   88.6520   61.6593 C.3      27        0    0.0000
    165 H          -0.6138   89.2417   61.4736 H        27        0    0.0000
    166 H          -0.9684   88.3244   62.9335 H        27        0    0.0000
    167 H          -3.4389   88.5125   62.4516 H        27        0    0.0000
    168 H          -3.0844   89.4298   60.9918 H        27        0    0.0000
    169 H          -2.5987   87.7224   61.0980 H        27        0    0.0000
    170 H           9.2798   87.8287  121.7450 H         0        0    0.0000
@<TRIPOS>BOND
     1     1     2      1
     2     1     3      1
     3     1     4      1
     4     1   170      H
     5     2     5      1
     6     2     6      1
     7     2     7      1
     8     7     8      1
     9     7     9      1
    10     7    10      1
    11     8    11      1
    12     8    12      1
    13     8    13      1
    14    13    14      1
    15    13    15      1
    16    13    16      1
    17    14    17      1
    18    14    18      1
    19    14    19      1
    20    19    20      1
    21    19    21      1
    22    19    22      1
    23    20    23      1
    24    20    24      1
    25    20    25      1
    26    25    26      1
    27    25    27      1
    28    25    28      1
    29    26    29      1
    30    26    30      1
    31    26    31      1
    32    31    32      1
    33    31    33      1
    34    31    34      1
    35    32    35      1
    36    32    36      1
    37    32    37      1
    38    37    38      1
    39    37    39      1
    40    37    40      1
    41    38    41      1
    42    38    42      1
    43    38    43      1
    44    43    44      1
    45    43    45      1
    46    43    46      1
    47    44    47      1
    48    44    48      1
    49    44    49      1
    50    49    50      1
    51    49    51      1
    52    49    52      1
    53    50    53      1
    54    50    54      1
    55    50    55      1
    56    55    56      1
    57    55    57      1
    58    55    58      1
    59    56    59      1
    60    56    60      1
    61    56    61      1
    62    61    62      1
    63    61    63      1
    64    61    64      1
    65    62    65      1
    66    62    66      1
    67    62    67      1
    68    67    68      1
    69    67    69      1
    70    67    70      1
    71    68    71      1
    72    68    72      1
    73    68    73      1
    74    73    74      1
    75    73    75      1
    76    73    76      1
    77    74    77      1
    78    74    78      1
    79    74    79      1
    80    79    80      1
    81    79    81      1
    82    79    82      1
    83    80    83      1
    84    80    84      1
    85    80    85      1
    86    85    86      1
    87    85    87      1
    88    85    88      1
    89    86    89      1
    90    86    90      1
    91    86    91      1
    92    91    92      1
    93    91    93      1
    94    91    94      1
    95    92    95      1
    96    92    96      1
    97    92    97      1
    98    97    98      1
    99    97    99      1
   100    97   100      1
   101    98   101      1
   102    98   102      1
   103    98   103      1
   104   103   104      1
   105   103   105      1
   106   103   106      1
   107   104   107      1
   108   104   108      1
   109   104   109      1
   110   109   110      1
   111   109   111      1
   112   109   112      1
   113   110   113      1
   114   110   114      1
   115   110   115      1
   116   115   116      1
   117   115   117      1
   118   115   118      1
   119   116   119      1
   120   116   120      1
   121   116   121      1
   122   121   122      1
   123   121   123      1
   124   121   124      1
   125   122   125      1
   126   122   126      1
   127   122   127      1
   128   127   128      1
   129   127   129      1
   130   127   130      1
   131   128   131      1
   132   128   132      1
   133   128   133      1
   134   133   134      1
   135   133   135      1
   136   133   136      1
   137   134   137      1
   138   134   138      1
   139   134   139      1
   140   139   140      1
   141   139   141      1
   142   139   142      1
   143   140   143      1
   144   140   144      1
   145   140   145      1
   146   145   146      1
   147   145   147      1
   148   145   148      1
   149   146   149      1
   150   146   150      1
   151   146   151      1
   152   151   152      1
   153   151   153      1
   154   151   154      1
   155   152   155      1
   156   152   156      1
   157   152   157      1
   158   157   158      1
   159   157   159      1
   160   157   160      1
   161   158   161      1
   162   158   162      1
   163   158   163      1
   164   163   164      1
   165   163   165      1
   166   163   166      1
   167   164   167      1
   168   164   168      1
   169   164   169      H
