###
### Created by PolyChef-cpp17 on Thu Feb 27 19:40:29 2025
###

@<TRIPOS>MOLECULE
NO_INFO
320 319 1 0 0
SMALL
USER_CHARGES


@<TRIPOS>ATOM
      1 C         119.2798    1.2287  120.6551 C.3       0        0    0.0000
      2 C         118.4513    0.0775  120.0742 C.3       0        0    0.0000
      3 H         118.8875    2.1902  120.3014 H         0        0    0.0000
      4 H         120.3162    1.1621  120.3014 H         0        0    0.0000
      5 H         118.4070   -0.7526  120.7901 H         0        0    0.0000
      6 H         117.4176    0.4049  119.9071 H         0        0    0.0000
      7 C         119.0383   -0.4531  118.7209 C.3       1        0    0.0000
      8 C         119.6350    0.6706  117.8663 C.3       1        0    0.0000
      9 H         119.8046   -1.2071  118.9393 H         1        0    0.0000
     10 H         118.2418   -0.9648  118.1665 H         1        0    0.0000
     11 H         118.9432    1.5212  117.8271 H         1        0    0.0000
     12 H         120.5618    1.0391  118.3234 H         1        0    0.0000
     13 C         119.9446    0.2032  116.4024 C.3       2        0    0.0000
     14 C         119.8844    1.3596  115.3984 C.3       2        0    0.0000
     15 H         120.9384   -0.2611  116.3822 H         2        0    0.0000
     16 H         119.2267   -0.5771  116.1210 H         2        0    0.0000
     17 H         118.9634    1.9374  115.5451 H         2        0    0.0000
     18 H         120.7198    2.0498  115.5690 H         2        0    0.0000
     19 C         119.9365    0.8604  113.9133 C.3       3        0    0.0000
     20 C         119.8254    2.0127  112.9089 C.3       3        0    0.0000
     21 H         120.8749    0.3140  113.7567 H         3        0    0.0000
     22 H         119.1231    0.1419  113.7530 H         3        0    0.0000
     23 H         118.8931    2.5669  113.0739 H         3        0    0.0000
     24 H         120.6462    2.7246  113.0608 H         3        0    0.0000
     25 C         119.8593    1.5117  111.4238 C.3       4        0    0.0000
     26 C         119.9916    2.6660  110.4243 C.3       4        0    0.0000
     27 H         120.6972    0.8135  111.3052 H         4        0    0.0000
     28 H         118.9437    0.9423  111.2218 H         4        0    0.0000
     29 H         119.1362    3.3463  110.5198 H         4        0    0.0000
     30 H         120.8895    3.2557  110.6474 H         4        0    0.0000
     31 C         120.0734    2.1621  108.9422 C.3       5        0    0.0000
     32 C         119.0921    2.8982  108.0234 C.3       5        0    0.0000
     33 H         121.1002    2.2952  108.5796 H         5        0    0.0000
     34 H         119.8700    1.0842  108.9234 H         5        0    0.0000
     35 H         118.1252    3.0210  108.5270 H         5        0    0.0000
     36 H         119.4646    3.9070  107.8062 H         5        0    0.0000
     37 C         118.8641    2.1415  106.6696 C.3       6        0    0.0000
     38 C         119.3261    2.9622  105.4604 C.3       6        0    0.0000
     39 H         119.4022    1.1861  106.7035 H         6        0    0.0000
     40 H         117.7982    1.8995  106.5749 H         6        0    0.0000
     41 H         118.5162    3.6193  105.1202 H         6        0    0.0000
     42 H         120.1617    3.6135  105.7450 H         6        0    0.0000
     43 C         119.7772    2.0552  104.2641 C.3       7        0    0.0000
     44 C         119.2796    2.5840  102.9144 C.3       7        0    0.0000
     45 H         120.8723    1.9910  104.2623 H         7        0    0.0000
     46 H         119.4023    1.0377  104.4308 H         7        0    0.0000
     47 H         118.2133    2.8343  102.9784 H         7        0    0.0000
     48 H         119.8059    3.5114  102.6565 H         7        0    0.0000
     49 C         119.4865    1.5471  101.7571 C.3       8        0    0.0000
     50 C         119.3488    2.1878  100.3716 C.3       8        0    0.0000
     51 H         120.4788    1.0914  101.8638 H         8        0    0.0000
     52 H         118.7544    0.7382  101.8719 H         8        0    0.0000
     53 H         118.3322    2.5773  100.2366 H         8        0    0.0000
     54 H         120.0286    3.0444  100.2840 H         8        0    0.0000
     55 C         119.6598    1.1757   99.2155 C.3       9        0    0.0000
     56 C         119.4728    1.8021   97.8292 C.3       9        0    0.0000
     57 H         120.6893    0.8144   99.3292 H         9        0    0.0000
     58 H         119.0054    0.3020   99.3248 H         9        0    0.0000
     59 H         118.4461    2.1729   97.7194 H         9        0    0.0000
     60 H         120.1348    2.6696   97.7160 H         9        0    0.0000
     61 C         119.7694    0.7858   96.6731 C.3      10        0    0.0000
     62 C         119.5706    1.4087   95.2869 C.3      10        0    0.0000
     63 H         120.7990    0.4218   96.7778 H        10        0    0.0000
     64 H         119.1136   -0.0856   96.7915 H        10        0    0.0000
     65 H         118.5390    1.7661   95.1796 H        10        0    0.0000
     66 H         120.2211    2.2846   95.1713 H        10        0    0.0000
     67 C         119.8773    0.3955   94.1307 C.3      11        0    0.0000
     68 C         119.6851    1.0204   92.7445 C.3      11        0    0.0000
     69 H         120.9073    0.0343   94.2410 H        11        0    0.0000
     70 H         119.2233   -0.4781   94.2435 H        11        0    0.0000
     71 H         118.6530    1.3746   92.6314 H        11        0    0.0000
     72 H         120.3334    1.8986   92.6347 H        11        0    0.0000
     73 C         120.0023    0.0104   91.5884 C.3      12        0    0.0000
     74 C         119.8023    0.6329   90.2022 C.3      12        0    0.0000
     75 H         121.0364   -0.3392   91.6980 H        12        0    0.0000
     76 H         119.3583   -0.8704   91.7017 H        12        0    0.0000
     77 H         118.7685    0.9835   90.0929 H        12        0    0.0000
     78 H         120.4471    1.5131   90.0884 H        12        0    0.0000
     79 C         120.1180   -0.3776   89.0460 C.3      13        0    0.0000
     80 C         119.9215    0.2459   87.6598 C.3      13        0    0.0000
     81 H         121.1510   -0.7302   89.1568 H        13        0    0.0000
     82 H         119.4713   -1.2566   89.1582 H        13        0    0.0000
     83 H         118.8855    0.5882   87.5447 H        13        0    0.0000
     84 H         120.5597    1.1317   87.5518 H        13        0    0.0000
     85 C         120.2528   -0.7595   86.5036 C.3      14        0    0.0000
     86 C         120.0601   -0.1348   85.1174 C.3      14        0    0.0000
     87 H         121.2878   -1.1040   86.6204 H        14        0    0.0000
     88 H         119.6126   -1.6440   86.6099 H        14        0    0.0000
     89 H         119.0047    0.1224   84.9641 H        14        0    0.0000
     90 H         120.6264    0.8021   85.0451 H        14        0    0.0000
     91 C         120.5193   -1.0930   83.9649 C.3      15        0    0.0000
     92 C         120.3278   -0.4677   82.5787 C.3      15        0    0.0000
     93 H         121.5744   -1.3509   84.1187 H        15        0    0.0000
     94 H         119.9523   -2.0295   84.0366 H        15        0    0.0000
     95 H         119.5700    0.3242   82.6247 H        15        0    0.0000
     96 H         121.2600    0.0072   82.2483 H        15        0    0.0000
     97 C         119.8908   -1.5237   81.5058 C.3      16        0    0.0000
     98 C         119.6683   -0.8928   80.1268 C.3      16        0    0.0000
     99 H         120.6601   -2.3033   81.4431 H        16        0    0.0000
    100 H         118.9713   -2.0151   81.8473 H        16        0    0.0000
    101 H         120.2382    0.0410   80.0440 H        16        0    0.0000
    102 H         120.0437   -1.5615   79.3422 H        16        0    0.0000
    103 C         118.1558   -0.5880   79.8499 C.3      17        0    0.0000
    104 C         117.9064   -0.1541   78.4013 C.3      17        0    0.0000
    105 H         117.5664   -1.4840   80.0810 H        17        0    0.0000
    106 H         117.8209    0.1960   80.5404 H        17        0    0.0000
    107 H         117.2021    0.6867   78.3764 H        17        0    0.0000
    108 H         118.8400    0.2037   77.9497 H        17        0    0.0000
    109 C         117.3340   -1.3191   77.5223 C.3      18        0    0.0000
    110 C         116.8495   -0.8296   76.1531 C.3      18        0    0.0000
    111 H         118.1125   -2.0816   77.3953 H        18        0    0.0000
    112 H         116.5091   -1.7982   78.0640 H        18        0    0.0000
    113 H         117.5969   -0.1625   75.7060 H        18        0    0.0000
    114 H         116.7359   -1.6792   75.4685 H        18        0    0.0000
    115 C         115.4824   -0.0678   76.2442 C.3      19        0    0.0000
    116 C         114.9143    0.2732   74.8621 C.3      19        0    0.0000
    117 H         114.7690   -0.6871   76.8018 H        19        0    0.0000
    118 H         115.6270    0.8495   76.8282 H        19        0    0.0000
    119 H         113.9359    0.7583   74.9669 H        19        0    0.0000
    120 H         115.5691    0.9913   74.3530 H        19        0    0.0000
    121 C         114.7547   -0.9958   73.9558 C.3      20        0    0.0000
    122 C         114.2287   -0.6493   72.5585 C.3      20        0    0.0000
    123 H         115.7263   -1.4992   73.8778 H        20        0    0.0000
    124 H         114.0739   -1.7000   74.4501 H        20        0    0.0000
    125 H         114.9267    0.0282   72.0512 H        20        0    0.0000
    126 H         114.1672   -1.5561   71.9442 H        20        0    0.0000
    127 C         112.8145    0.0254   72.6066 C.3      21        0    0.0000
    128 C         112.2281    0.2455   71.2077 C.3      21        0    0.0000
    129 H         112.1420   -0.6049   73.2015 H        21        0    0.0000
    130 H         112.8976    0.9834   73.1346 H        21        0    0.0000
    131 H         111.2087    0.6433   71.2855 H        21        0    0.0000
    132 H         112.8183    0.9950   70.6661 H        21        0    0.0000
    133 C         112.1921   -1.0753   70.3641 C.3      22        0    0.0000
    134 C         111.5589   -0.8661   68.9841 C.3      22        0    0.0000
    135 H         113.2162   -1.4531   70.2547 H        22        0    0.0000
    136 H         111.6335   -1.8366   70.9227 H        22        0    0.0000
    137 H         112.2237   -0.2638   68.3526 H        22        0    0.0000
    138 H         111.4325   -1.8311   68.4780 H        22        0    0.0000
    139 C         110.1645   -0.1551   69.0719 C.3      23        0    0.0000
    140 C         109.6508    0.2878   67.6975 C.3      23        0    0.0000
    141 H         109.4467   -0.8409   69.5387 H        23        0    0.0000
    142 H         110.2510    0.7119   69.7385 H        23        0    0.0000
    143 H         110.4952    0.5321   67.0412 H        23        0    0.0000
    144 H         109.1057   -0.5340   67.2169 H        23        0    0.0000
    145 C         108.7056    1.5350   67.7902 C.3      24        0    0.0000
    146 C         107.3468    1.2846   67.1268 C.3      24        0    0.0000
    147 H         108.5661    1.7952   68.8468 H        24        0    0.0000
    148 H         109.2026    2.3913   67.3179 H        24        0    0.0000
    149 H         107.3967    1.5367   66.0603 H        24        0    0.0000
    150 H         107.0893    0.2198   67.1871 H        24        0    0.0000
    151 C         106.1986    2.1205   67.7905 C.3      25        0    0.0000
    152 C         105.9345    3.4356   67.0491 C.3      25        0    0.0000
    153 H         105.2861    1.5119   67.8136 H        25        0    0.0000
    154 H         106.4677    2.3246   68.8343 H        25        0    0.0000
    155 H         106.3258    3.3758   66.0259 H        25        0    0.0000
    156 H         104.8546    3.6090   66.9637 H        25        0    0.0000
    157 C         106.5883    4.6651   67.7690 C.3      26        0    0.0000
    158 C         105.5534    5.7236   68.1659 C.3      26        0    0.0000
    159 H         107.1237    4.3105   68.6584 H        26        0    0.0000
    160 H         107.3407    5.1058   67.1032 H        26        0    0.0000
    161 H         105.9388    6.7272   67.9472 H        26        0    0.0000
    162 H         104.6409    5.5997   67.5696 H        26        0    0.0000
    163 C         105.1779    5.6468   69.6860 C.3      27        0    0.0000
    164 C         105.0418    7.0348   70.3216 C.3      27        0    0.0000
    165 H         104.2376    5.0914   69.7904 H        27        0    0.0000
    166 H         105.9466    5.0663   70.2112 H        27        0    0.0000
    167 H         105.8839    7.6704   70.0209 H        27        0    0.0000
    168 H         104.1307    7.5267   69.9592 H        27        0    0.0000
    169 C         104.9922    6.9691   71.8870 C.3      28        0    0.0000
    170 C         103.8724    7.8384   72.4697 C.3      28        0    0.0000
    171 H         104.8553    5.9245   72.1930 H        28        0    0.0000
    172 H         105.9629    7.2894   72.2853 H        28        0    0.0000
    173 H         104.1934    8.8866   72.5121 H        28        0    0.0000
    174 H         102.9916    7.8049   71.8165 H        28        0    0.0000
    175 C         103.4521    7.3800   73.9086 C.3      29        0    0.0000
    176 C         103.8732    8.3865   74.9851 C.3      29        0    0.0000
    177 H         102.3644    7.2384   73.9310 H        29        0    0.0000
    178 H         103.9016    6.4004   74.1131 H        29        0    0.0000
    179 H         104.6788    9.0276   74.6061 H        29        0    0.0000
    180 H         103.0333    9.0482   75.2306 H        29        0    0.0000
    181 C         104.3626    7.6828   76.2976 C.3      30        0    0.0000
    182 C         105.7693    8.1321   76.7078 C.3      30        0    0.0000
    183 H         103.6489    7.8994   77.1021 H        30        0    0.0000
    184 H         104.3444    6.5966   76.1443 H        30        0    0.0000
    185 H         106.0101    9.0925   76.2353 H        30        0    0.0000
    186 H         105.8109    8.2952   77.7919 H        30        0    0.0000
    187 C         106.8666    7.0849   76.3119 C.3      31        0    0.0000
    188 C         107.6437    6.5698   77.5283 C.3      31        0    0.0000
    189 H         106.3851    6.2480   75.7911 H        31        0    0.0000
    190 H         107.5550    7.5483   75.5943 H        31        0    0.0000
    191 H         108.7138    6.5113   77.2939 H        31        0    0.0000
    192 H         107.5423    7.2725   78.3646 H        31        0    0.0000
    193 C         107.1504    5.1564   77.9935 C.3      32        0    0.0000
    194 C         106.8097    5.1227   79.4874 C.3      32        0    0.0000
    195 H         106.2708    4.8761   77.4007 H        32        0    0.0000
    196 H         107.9300    4.4181   77.7687 H        32        0    0.0000
    197 H         107.6821    4.7922   80.0648 H        32        0    0.0000
    198 H         106.5626    6.1318   79.8398 H        32        0    0.0000
    199 C         105.6056    4.1690   79.8009 C.3      33        0    0.0000
    200 C         106.0604    2.8450   80.4248 C.3      33        0    0.0000
    201 H         104.9126    4.6850   80.4769 H        33        0    0.0000
    202 H         105.0551    3.9774   78.8715 H        33        0    0.0000
    203 H         107.1184    2.6655   80.1967 H        33        0    0.0000
    204 H         105.9780    2.8962   81.5175 H        33        0    0.0000
    205 C         105.2190    1.6262   79.9111 C.3      34        0    0.0000
    206 C         104.1548    1.1873   80.9230 C.3      34        0    0.0000
    207 H         104.7441    1.8997   78.9607 H        34        0    0.0000
    208 H         105.8990    0.7929   79.6951 H        34        0    0.0000
    209 H         104.5279    0.3461   81.5203 H        34        0    0.0000
    210 H         103.9443    2.0034   81.6253 H        34        0    0.0000
    211 C         102.8157    0.7597   80.2292 C.3      35        0    0.0000
    212 C         101.7050    0.4636   81.2430 C.3      35        0    0.0000
    213 H         102.4996    1.5591   79.5477 H        35        0    0.0000
    214 H         103.0054   -0.1257   79.6098 H        35        0    0.0000
    215 H         100.9292    1.2373   81.1876 H        35        0    0.0000
    216 H         101.2180   -0.4889   81.0000 H        35        0    0.0000
    217 C         102.2454    0.3943   82.7129 C.3      36        0    0.0000
    218 C         101.1236    0.1770   83.7345 C.3      36        0    0.0000
    219 H         102.9795   -0.4180   82.7819 H        36        0    0.0000
    220 H         102.7826    1.3243   82.9364 H        36        0    0.0000
    221 H         100.3094    0.8904   83.5566 H        36        0    0.0000
    222 H         100.6954   -0.8260   83.6153 H        36        0    0.0000
    223 C         101.6248    0.3402   85.2109 C.3      37        0    0.0000
    224 C         100.5070    0.1060   86.2330 C.3      37        0    0.0000
    225 H         102.4474   -0.3645   85.3850 H        37        0    0.0000
    226 H         102.0416    1.3475   85.3335 H        37        0    0.0000
    227 H          99.7036    0.8385   86.0863 H        37        0    0.0000
    228 H         100.0611   -0.8850   86.0823 H        37        0    0.0000
    229 C         101.0215    0.2092   87.7102 C.3      38        0    0.0000
    230 C          99.9028   -0.0210   88.7323 C.3      38        0    0.0000
    231 H         101.8228   -0.5253   87.8577 H        38        0    0.0000
    232 H         101.4700    1.1991   87.8600 H        38        0    0.0000
    233 H          99.1021    0.7144   88.5856 H        38        0    0.0000
    234 H          99.4534   -1.0104   88.5815 H        38        0    0.0000
    235 C         100.4177    0.0803   90.2094 C.3      39        0    0.0000
    236 C          99.2974   -0.1414   91.2316 C.3      39        0    0.0000
    237 H         101.2141   -0.6594   90.3579 H        39        0    0.0000
    238 H         100.8728    1.0674   90.3583 H        39        0    0.0000
    239 H          98.4997    0.5967   91.0814 H        39        0    0.0000
    240 H          98.8440   -1.1295   91.0844 H        39        0    0.0000
    241 C          99.8115   -0.0363   92.7087 C.3      40        0    0.0000
    242 C          98.6919   -0.2620   93.7309 C.3      40        0    0.0000
    243 H         100.6111   -0.7724   92.8580 H        40        0    0.0000
    244 H         100.2622    0.9529   92.8568 H        40        0    0.0000
    245 H          97.8939    0.4762   93.5838 H        40        0    0.0000
    246 H          98.2389   -1.2499   93.5806 H        40        0    0.0000
    247 C          99.2070   -0.1618   95.2081 C.3      41        0    0.0000
    248 C          98.0844   -0.3717   96.2302 C.3      41        0    0.0000
    249 H          99.9971   -0.9079   95.3585 H        41        0    0.0000
    250 H          99.6704    0.8217   95.3550 H        41        0    0.0000
    251 H          97.2931    0.3728   96.0781 H        41        0    0.0000
    252 H          97.6227   -1.3562   96.0849 H        41        0    0.0000
    253 C          98.5988   -0.2678   97.7074 C.3      42        0    0.0000
    254 C          97.4881   -0.5344   98.7293 C.3      42        0    0.0000
    255 H          99.4185   -0.9832   97.8475 H        42        0    0.0000
    256 H          99.0227    0.7318   97.8647 H        42        0    0.0000
    257 H          96.6710    0.1849   98.5931 H        42        0    0.0000
    258 H          97.0601   -1.5316   98.5681 H        42        0    0.0000
    259 C          98.0044   -0.4388  100.2064 C.3      43        0    0.0000
    260 C          97.0227    0.3059  101.1178 C.3      43        0    0.0000
    261 H          98.1759   -1.4532  100.5873 H        43        0    0.0000
    262 H          98.9778    0.0673  100.2087 H        43        0    0.0000
    263 H          96.6938    1.2353  100.6366 H        43        0    0.0000
    264 H          96.1232   -0.3015  101.2777 H        43        0    0.0000
    265 C          97.6521    0.6534  102.5108 C.3      44        0    0.0000
    266 C          96.8412    0.0742  103.6753 C.3      44        0    0.0000
    267 H          98.6794    0.2696  102.5403 H        44        0    0.0000
    268 H          97.7204    1.7442  102.6058 H        44        0    0.0000
    269 H          96.0436    0.7710  103.9615 H        44        0    0.0000
    270 H          96.3502   -0.8566  103.3655 H        44        0    0.0000
    271 C          97.7316   -0.2182  104.9319 C.3      45        0    0.0000
    272 C          97.1405    0.3780  106.2142 C.3      45        0    0.0000
    273 H          97.8456   -1.3040  105.0396 H        45        0    0.0000
    274 H          98.7355    0.1880  104.7562 H        45        0    0.0000
    275 H          96.7970    1.4032  106.0287 H        45        0    0.0000
    276 H          96.2601   -0.1978  106.5256 H        45        0    0.0000
    277 C          98.1746    0.3969  107.3922 C.3      46        0    0.0000
    278 C          97.4950    0.3078  108.7631 C.3      46        0    0.0000
    279 H          98.8727   -0.4396  107.2634 H        46        0    0.0000
    280 H          98.7691    1.3165  107.3261 H        46        0    0.0000
    281 H          96.8962    1.2088  108.9453 H        46        0    0.0000
    282 H          96.8009   -0.5415  108.7844 H        46        0    0.0000
    283 C          98.5295    0.1443  109.9295 C.3      47        0    0.0000
    284 C          97.8683    0.2342  111.3092 C.3      47        0    0.0000
    285 H          99.0380   -0.8215  109.8183 H        47        0    0.0000
    286 H          99.2998    0.9191  109.8303 H        47        0    0.0000
    287 H          97.3299    1.1850  111.4070 H        47        0    0.0000
    288 H          97.1230   -0.5629  111.4219 H        47        0    0.0000
    289 C          98.9096    0.1209  112.4756 C.3      48        0    0.0000
    290 C          98.2467    0.1966  113.8554 C.3      48        0    0.0000
    291 H          99.4552   -0.8251  112.3718 H        48        0    0.0000
    292 H          99.6489    0.9244  112.3689 H        48        0    0.0000
    293 H          97.7033    1.1438  113.9603 H        48        0    0.0000
    294 H          97.5053   -0.6052  113.9611 H        48        0    0.0000
    295 C          99.2875    0.0793  115.0218 C.3      49        0    0.0000
    296 C          98.6249    0.1571  116.4016 C.3      49        0    0.0000
    297 H          99.8297   -0.8687  114.9178 H        49        0    0.0000
    298 H         100.0297    0.8801  114.9152 H        49        0    0.0000
    299 H          98.0814    1.1044  116.5050 H        49        0    0.0000
    300 H          97.8837   -0.6446  116.5087 H        49        0    0.0000
    301 C          99.6659    0.0418  117.5680 C.3      50        0    0.0000
    302 C          99.0019    0.1071  118.9478 C.3      50        0    0.0000
    303 H         100.2157   -0.9013  117.4593 H        50        0    0.0000
    304 H         100.4018    0.8490  117.4661 H        50        0    0.0000
    305 H          98.4526    1.0505  119.0567 H        50        0    0.0000
    306 H          98.2655   -0.6997  119.0494 H        50        0    0.0000
    307 C         100.0429   -0.0090  120.1141 C.3      51        0    0.0000
    308 C          99.3807    0.0728  121.4939 C.3      51        0    0.0000
    309 H         100.5837   -0.9580  120.0122 H        51        0    0.0000
    310 H         100.7862    0.7905  120.0056 H        51        0    0.0000
    311 H          98.8058   -0.8407  121.6901 H        51        0    0.0000
    312 H         100.1474    0.1366  122.2760 H        51        0    0.0000
    313 C          98.4246    1.3086  121.6217 C.3      52        0    0.0000
    314 C          97.5373    1.2300  122.8689 C.3      52        0    0.0000
    315 H          99.0303    2.2230  121.6480 H        52        0    0.0000
    316 H          97.8022    1.3688  120.7203 H        52        0    0.0000
    317 H          96.9316    0.3156  122.8426 H        52        0    0.0000
    318 H          98.1597    1.1697  123.7702 H        52        0    0.0000
    319 H          96.8725    2.0892  122.9577 H        52        0    0.0000
    320 H         119.2798    1.2287  121.7450 H         0        0    0.0000
@<TRIPOS>BOND
     1     1     2      1
     2     1     3      1
     3     1     4      1
     4     1   320      H
     5     2     5      1
     6     2     6      1
     7     2     7      1
     8     7     8      1
     9     7     9      1
    10     7    10      1
    11     8    11      1
    12     8    12      1
    13     8    13      1
    14    13    14      1
    15    13    15      1
    16    13    16      1
    17    14    17      1
    18    14    18      1
    19    14    19      1
    20    19    20      1
    21    19    21      1
    22    19    22      1
    23    20    23      1
    24    20    24      1
    25    20    25      1
    26    25    26      1
    27    25    27      1
    28    25    28      1
    29    26    29      1
    30    26    30      1
    31    26    31      1
    32    31    32      1
    33    31    33      1
    34    31    34      1
    35    32    35      1
    36    32    36      1
    37    32    37      1
    38    37    38      1
    39    37    39      1
    40    37    40      1
    41    38    41      1
    42    38    42      1
    43    38    43      1
    44    43    44      1
    45    43    45      1
    46    43    46      1
    47    44    47      1
    48    44    48      1
    49    44    49      1
    50    49    50      1
    51    49    51      1
    52    49    52      1
    53    50    53      1
    54    50    54      1
    55    50    55      1
    56    55    56      1
    57    55    57      1
    58    55    58      1
    59    56    59      1
    60    56    60      1
    61    56    61      1
    62    61    62      1
    63    61    63      1
    64    61    64      1
    65    62    65      1
    66    62    66      1
    67    62    67      1
    68    67    68      1
    69    67    69      1
    70    67    70      1
    71    68    71      1
    72    68    72      1
    73    68    73      1
    74    73    74      1
    75    73    75      1
    76    73    76      1
    77    74    77      1
    78    74    78      1
    79    74    79      1
    80    79    80      1
    81    79    81      1
    82    79    82      1
    83    80    83      1
    84    80    84      1
    85    80    85      1
    86    85    86      1
    87    85    87      1
    88    85    88      1
    89    86    89      1
    90    86    90      1
    91    86    91      1
    92    91    92      1
    93    91    93      1
    94    91    94      1
    95    92    95      1
    96    92    96      1
    97    92    97      1
    98    97    98      1
    99    97    99      1
   100    97   100      1
   101    98   101      1
   102    98   102      1
   103    98   103      1
   104   103   104      1
   105   103   105      1
   106   103   106      1
   107   104   107      1
   108   104   108      1
   109   104   109      1
   110   109   110      1
   111   109   111      1
   112   109   112      1
   113   110   113      1
   114   110   114      1
   115   110   115      1
   116   115   116      1
   117   115   117      1
   118   115   118      1
   119   116   119      1
   120   116   120      1
   121   116   121      1
   122   121   122      1
   123   121   123      1
   124   121   124      1
   125   122   125      1
   126   122   126      1
   127   122   127      1
   128   127   128      1
   129   127   129      1
   130   127   130      1
   131   128   131      1
   132   128   132      1
   133   128   133      1
   134   133   134      1
   135   133   135      1
   136   133   136      1
   137   134   137      1
   138   134   138      1
   139   134   139      1
   140   139   140      1
   141   139   141      1
   142   139   142      1
   143   140   143      1
   144   140   144      1
   145   140   145      1
   146   145   146      1
   147   145   147      1
   148   145   148      1
   149   146   149      1
   150   146   150      1
   151   146   151      1
   152   151   152      1
   153   151   153      1
   154   151   154      1
   155   152   155      1
   156   152   156      1
   157   152   157      1
   158   157   158      1
   159   157   159      1
   160   157   160      1
   161   158   161      1
   162   158   162      1
   163   158   163      1
   164   163   164      1
   165   163   165      1
   166   163   166      1
   167   164   167      1
   168   164   168      1
   169   164   169      1
   170   169   170      1
   171   169   171      1
   172   169   172      1
   173   170   173      1
   174   170   174      1
   175   170   175      1
   176   175   176      1
   177   175   177      1
   178   175   178      1
   179   176   179      1
   180   176   180      1
   181   176   181      1
   182   181   182      1
   183   181   183      1
   184   181   184      1
   185   182   185      1
   186   182   186      1
   187   182   187      1
   188   187   188      1
   189   187   189      1
   190   187   190      1
   191   188   191      1
   192   188   192      1
   193   188   193      1
   194   193   194      1
   195   193   195      1
   196   193   196      1
   197   194   197      1
   198   194   198      1
   199   194   199      1
   200   199   200      1
   201   199   201      1
   202   199   202      1
   203   200   203      1
   204   200   204      1
   205   200   205      1
   206   205   206      1
   207   205   207      1
   208   205   208      1
   209   206   209      1
   210   206   210      1
   211   206   211      1
   212   211   212      1
   213   211   213      1
   214   211   214      1
   215   212   215      1
   216   212   216      1
   217   212   217      1
   218   217   218      1
   219   217   219      1
   220   217   220      1
   221   218   221      1
   222   218   222      1
   223   218   223      1
   224   223   224      1
   225   223   225      1
   226   223   226      1
   227   224   227      1
   228   224   228      1
   229   224   229      1
   230   229   230      1
   231   229   231      1
   232   229   232      1
   233   230   233      1
   234   230   234      1
   235   230   235      1
   236   235   236      1
   237   235   237      1
   238   235   238      1
   239   236   239      1
   240   236   240      1
   241   236   241      1
   242   241   242      1
   243   241   243      1
   244   241   244      1
   245   242   245      1
   246   242   246      1
   247   242   247      1
   248   247   248      1
   249   247   249      1
   250   247   250      1
   251   248   251      1
   252   248   252      1
   253   248   253      1
   254   253   254      1
   255   253   255      1
   256   253   256      1
   257   254   257      1
   258   254   258      1
   259   254   259      1
   260   259   260      1
   261   259   261      1
   262   259   262      1
   263   260   263      1
   264   260   264      1
   265   260   265      1
   266   265   266      1
   267   265   267      1
   268   265   268      1
   269   266   269      1
   270   266   270      1
   271   266   271      1
   272   271   272      1
   273   271   273      1
   274   271   274      1
   275   272   275      1
   276   272   276      1
   277   272   277      1
   278   277   278      1
   279   277   279      1
   280   277   280      1
   281   278   281      1
   282   278   282      1
   283   278   283      1
   284   283   284      1
   285   283   285      1
   286   283   286      1
   287   284   287      1
   288   284   288      1
   289   284   289      1
   290   289   290      1
   291   289   291      1
   292   289   292      1
   293   290   293      1
   294   290   294      1
   295   290   295      1
   296   295   296      1
   297   295   297      1
   298   295   298      1
   299   296   299      1
   300   296   300      1
   301   296   301      1
   302   301   302      1
   303   301   303      1
   304   301   304      1
   305   302   305      1
   306   302   306      1
   307   302   307      1
   308   307   308      1
   309   307   309      1
   310   307   310      1
   311   308   311      1
   312   308   312      1
   313   308   313      1
   314   313   314      1
   315   313   315      1
   316   313   316      1
   317   314   317      1
   318   314   318      1
   319   314   319      H
