###
### Created by PolyChef-cpp17 on Thu Feb 27 19:40:29 2025
###

@<TRIPOS>MOLECULE
NO_INFO
1028 1027 1 0 0
SMALL
USER_CHARGES


@<TRIPOS>ATOM
      1 C          19.2798  174.4287  -39.3449 C.3       0        0    0.0000
      2 C          17.8706  174.2682  -38.7641 C.3       0        0    0.0000
      3 H          19.9271  173.6166  -38.9913 H         0        0    0.0000
      4 H          19.7280  175.3655  -38.9913 H         0        0    0.0000
      5 H          17.3717  175.2439  -38.7122 H         0        0    0.0000
      6 H          17.2615  173.6376  -39.4236 H         0        0    0.0000
      7 C          17.8874  173.6325  -37.3312 C.3       1        0    0.0000
      8 C          19.1657  173.9759  -36.5585 C.3       1        0    0.0000
      9 H          17.0076  173.9840  -36.7781 H         1        0    0.0000
     10 H          17.7859  172.5443  -37.4259 H         1        0    0.0000
     11 H          20.0456  173.7994  -37.1895 H         1        0    0.0000
     12 H          19.1732  175.0416  -36.2983 H         1        0    0.0000
     13 C          19.3096  173.1338  -35.2440 C.3       2        0    0.0000
     14 C          20.2065  173.8215  -34.2089 C.3       2        0    0.0000
     15 H          18.3113  172.9630  -34.8225 H         2        0    0.0000
     16 H          19.7170  172.1475  -35.4987 H         2        0    0.0000
     17 H          21.2612  173.7012  -34.4859 H         2        0    0.0000
     18 H          20.0057  174.9000  -34.1944 H         2        0    0.0000
     19 C          19.9948  173.2487  -32.7651 C.3       3        0    0.0000
     20 C          20.6185  174.1431  -31.6881 C.3       3        0    0.0000
     21 H          18.9187  173.1361  -32.5837 H         3        0    0.0000
     22 H          20.4294  172.2426  -32.7167 H         3        0    0.0000
     23 H          21.7075  174.1817  -31.8156 H         3        0    0.0000
     24 H          20.2521  175.1716  -31.7947 H         3        0    0.0000
     25 C          20.2971  173.6398  -30.2386 C.3       4        0    0.0000
     26 C          20.8911  174.5540  -29.1613 C.3       4        0    0.0000
     27 H          19.2084  173.5763  -30.1197 H         4        0    0.0000
     28 H          20.6866  172.6207  -30.1237 H         4        0    0.0000
     29 H          21.9804  174.6130  -29.2769 H         4        0    0.0000
     30 H          20.5060  175.5744  -29.2797 H         4        0    0.0000
     31 C          20.5630  174.0550  -27.7119 C.3       5        0    0.0000
     32 C          21.1544  174.9708  -26.6346 C.3       5        0    0.0000
     33 H          19.4737  173.9939  -27.5970 H         5        0    0.0000
     34 H          20.9501  173.0355  -27.5928 H         5        0    0.0000
     35 H          22.2439  175.0311  -26.7487 H         5        0    0.0000
     36 H          20.7682  175.9907  -26.7544 H         5        0    0.0000
     37 C          20.8250  174.4728  -25.1851 C.3       6        0    0.0000
     38 C          21.4588  175.3600  -24.1080 C.3       6        0    0.0000
     39 H          19.7355  174.4480  -25.0588 H         6        0    0.0000
     40 H          21.1783  173.4398  -25.0774 H         6        0    0.0000
     41 H          22.5478  175.3894  -24.2377 H         6        0    0.0000
     42 H          21.1012  176.3919  -24.2123 H         6        0    0.0000
     43 C          21.1360  174.8574  -22.6587 C.3       7        0    0.0000
     44 C          21.0481  176.0087  -21.6507 C.3       7        0    0.0000
     45 H          20.1898  174.3026  -22.6794 H         7        0    0.0000
     46 H          21.9118  174.1458  -22.3502 H         7        0    0.0000
     47 H          22.0297  176.4855  -21.5379 H         7        0    0.0000
     48 H          20.3632  176.7815  -22.0211 H         7        0    0.0000
     49 C          20.5545  175.5289  -20.2423 C.3       8        0    0.0000
     50 C          21.5067  175.9515  -19.1181 C.3       8        0    0.0000
     51 H          19.5529  175.9378  -20.0605 H         8        0    0.0000
     52 H          20.4511  174.4368  -20.2570 H         8        0    0.0000
     53 H          22.5456  175.9031  -19.4671 H         8        0    0.0000
     54 H          21.3171  176.9949  -18.8369 H         8        0    0.0000
     55 C          21.3590  175.0500  -17.8442 C.3       9        0    0.0000
     56 C          21.0882  175.8719  -16.5792 C.3       9        0    0.0000
     57 H          20.5438  174.3347  -18.0098 H         9        0    0.0000
     58 H          22.2756  174.4600  -17.7204 H         9        0    0.0000
     59 H          22.0084  176.3704  -16.2503 H         9        0    0.0000
     60 H          20.3602  176.6641  -16.7940 H         9        0    0.0000
     61 C          20.5431  174.9902  -15.4032 C.3      10        0    0.0000
     62 C          20.9711  175.5228  -14.0313 C.3      10        0    0.0000
     63 H          19.4486  174.9525  -15.4674 H        10        0    0.0000
     64 H          20.9021  173.9621  -15.5363 H        10        0    0.0000
     65 H          22.0543  175.6958  -14.0161 H        10        0    0.0000
     66 H          20.4945  176.4921  -13.8387 H        10        0    0.0000
     67 C          20.6003  174.5378  -12.8695 C.3      11        0    0.0000
     68 C          20.8503  175.1500  -11.4869 C.3      11        0    0.0000
     69 H          19.5455  174.2536  -12.9699 H        11        0    0.0000
     70 H          21.1868  173.6179  -12.9852 H        11        0    0.0000
     71 H          21.9126  175.3989  -11.3721 H        11        0    0.0000
     72 H          20.2938  176.0900  -11.3855 H        11        0    0.0000
     73 C          20.4290  174.1855  -10.3251 C.3      12        0    0.0000
     74 C          20.6883  174.7937   -8.9424 C.3      12        0    0.0000
     75 H          19.3649  173.9425  -10.4356 H        12        0    0.0000
     76 H          20.9801  173.2428  -10.4307 H        12        0    0.0000
     77 H          21.7518  175.0401   -8.8332 H        12        0    0.0000
     78 H          20.1344  175.7346   -8.8354 H        12        0    0.0000
     79 C          20.2716  173.8273   -7.7806 C.3      13        0    0.0000
     80 C          20.5217  174.4394   -6.3979 C.3      13        0    0.0000
     81 H          19.2100  173.5752   -7.8939 H        13        0    0.0000
     82 H          20.8309  172.8891   -7.8833 H        13        0    0.0000
     83 H          21.5846  174.6851   -6.2819 H        13        0    0.0000
     84 H          19.9679  175.3811   -6.2977 H        13        0    0.0000
     85 C          20.0959  173.4768   -5.2362 C.3      14        0    0.0000
     86 C          20.2919  174.1113   -3.8548 C.3      14        0    0.0000
     87 H          19.0442  173.1975   -5.3760 H        14        0    0.0000
     88 H          20.6803  172.5515   -5.3115 H        14        0    0.0000
     89 H          21.3488  174.3637   -3.7034 H        14        0    0.0000
     90 H          19.7309  175.0518   -3.7898 H        14        0    0.0000
     91 C          19.8273  173.1646   -2.6949 C.3      15        0    0.0000
     92 C          20.1620  173.7334   -1.3116 C.3      15        0    0.0000
     93 H          18.7460  173.0017   -2.7831 H        15        0    0.0000
     94 H          20.3051  172.1856   -2.8247 H        15        0    0.0000
     95 H          21.1624  174.1836   -1.3220 H        15        0    0.0000
     96 H          19.4585  174.5349   -1.0542 H        15        0    0.0000
     97 C          20.1123  172.6383   -0.1911 C.3      16        0    0.0000
     98 C          20.8007  173.0961    1.0995 C.3      16        0    0.0000
     99 H          19.0639  172.3863    0.0109 H        16        0    0.0000
    100 H          20.5889  171.7249   -0.5679 H        16        0    0.0000
    101 H          21.4913  173.9212    0.8852 H        16        0    0.0000
    102 H          20.0562  173.4839    1.8058 H        16        0    0.0000
    103 C          21.5977  171.9369    1.7912 C.3      17        0    0.0000
    104 C          22.4274  172.4319    2.9810 C.3      17        0    0.0000
    105 H          20.8882  171.1680    2.1213 H        17        0    0.0000
    106 H          22.2512  171.4642    1.0475 H        17        0    0.0000
    107 H          22.0357  173.3919    3.3394 H        17        0    0.0000
    108 H          22.3447  171.7261    3.8168 H        17        0    0.0000
    109 C          23.9419  172.6084    2.6167 C.3      18        0    0.0000
    110 C          24.7727  173.0976    3.8081 C.3      18        0    0.0000
    111 H          24.3325  171.6494    2.2542 H        18        0    0.0000
    112 H          24.0249  173.3174    1.7837 H        18        0    0.0000
    113 H          24.8912  172.2900    4.5410 H        18        0    0.0000
    114 H          25.7816  173.3720    3.4758 H        18        0    0.0000
    115 C          24.1213  174.3336    4.5190 C.3      19        0    0.0000
    116 C          24.9208  174.7861    5.7458 C.3      19        0    0.0000
    117 H          24.0426  175.1559    3.7971 H        19        0    0.0000
    118 H          23.0968  174.0732    4.8128 H        19        0    0.0000
    119 H          24.4847  174.3591    6.6574 H        19        0    0.0000
    120 H          25.9499  174.4111    5.6833 H        19        0    0.0000
    121 C          24.9594  176.3468    5.8872 C.3      20        0    0.0000
    122 C          25.9200  176.8066    6.9895 C.3      20        0    0.0000
    123 H          25.2555  176.7819    4.9247 H        20        0    0.0000
    124 H          23.9451  176.7080    6.0975 H        20        0    0.0000
    125 H          25.5771  176.4392    7.9646 H        20        0    0.0000
    126 H          26.9159  176.3775    6.8236 H        20        0    0.0000
    127 C          26.0468  178.3678    7.0538 C.3      21        0    0.0000
    128 C          26.9953  178.8281    8.1663 C.3      21        0    0.0000
    129 H          26.4008  178.7341    6.0822 H        21        0    0.0000
    130 H          25.0493  178.7975    7.2082 H        21        0    0.0000
    131 H          26.6599  178.4340    9.1336 H        21        0    0.0000
    132 H          28.0011  178.4255    7.9936 H        21        0    0.0000
    133 C          27.0858  180.3903    8.2612 C.3      22        0    0.0000
    134 C          28.0331  180.8506    9.3746 C.3      22        0    0.0000
    135 H          27.4223  180.7843    7.2942 H        22        0    0.0000
    136 H          26.0799  180.7930    8.4327 H        22        0    0.0000
    137 H          27.7201  180.4234   10.3354 H        22        0    0.0000
    138 H          29.0480  180.4817    9.1815 H        22        0    0.0000
    139 C          28.0798  182.4120    9.5072 C.3      23        0    0.0000
    140 C          29.0235  182.8721   10.6237 C.3      23        0    0.0000
    141 H          28.3961  182.8390    8.5474 H        23        0    0.0000
    142 H          27.0643  182.7812    9.6969 H        23        0    0.0000
    143 H          28.7519  182.3871   11.5695 H        23        0    0.0000
    144 H          30.0522  182.5661   10.3967 H        23        0    0.0000
    145 C          28.9915  184.4264   10.8256 C.3      24        0    0.0000
    146 C          29.9624  184.8904   11.9170 C.3      24        0    0.0000
    147 H          29.2367  184.9118    9.8728 H        24        0    0.0000
    148 H          27.9680  184.7291   11.0792 H        24        0    0.0000
    149 H          29.4734  184.8484   12.8981 H        24        0    0.0000
    150 H          30.8248  184.2141   11.9656 H        24        0    0.0000
    151 C          30.4784  186.3503   11.6716 C.3      25        0    0.0000
    152 C          31.4558  186.8112   12.7584 C.3      25        0    0.0000
    153 H          30.9619  186.3937   10.6878 H        25        0    0.0000
    154 H          29.6164  187.0275   11.6292 H        25        0    0.0000
    155 H          30.9266  186.9386   13.7109 H        25        0    0.0000
    156 H          32.2228  186.0445   12.9243 H        25        0    0.0000
    157 C          32.1623  188.1608   12.3884 C.3      26        0    0.0000
    158 C          33.2069  188.5745   13.4309 C.3      26        0    0.0000
    159 H          32.6349  188.0543   11.4041 H        26        0    0.0000
    160 H          31.3999  188.9433   12.2888 H        26        0    0.0000
    161 H          32.7309  188.6989   14.4115 H        26        0    0.0000
    162 H          33.9591  187.7840   13.5439 H        26        0    0.0000
    163 C          33.9316  189.9108   13.0479 C.3      27        0    0.0000
    164 C          34.5141  190.6270   14.2713 C.3      27        0    0.0000
    165 H          34.7288  189.6869   12.3282 H        27        0    0.0000
    166 H          33.2174  190.5655   12.5334 H        27        0    0.0000
    167 H          33.7507  190.7152   15.0543 H        27        0    0.0000
    168 H          35.3352  190.0370   14.6970 H        27        0    0.0000
    169 C          35.0485  192.0589   13.9229 C.3      28        0    0.0000
    170 C          35.5567  192.8063   15.1607 C.3      28        0    0.0000
    171 H          35.8531  191.9657   13.1830 H        28        0    0.0000
    172 H          34.2437  192.6295   13.4430 H        28        0    0.0000
    173 H          34.7552  192.8898   15.9052 H        28        0    0.0000
    174 H          36.3689  192.2410   15.6343 H        28        0    0.0000
    175 C          36.0768  194.2441   14.8147 C.3      29        0    0.0000
    176 C          36.7487  194.9229   16.0133 C.3      29        0    0.0000
    177 H          36.7829  194.1729   13.9781 H        29        0    0.0000
    178 H          35.2326  194.8504   14.4636 H        29        0    0.0000
    179 H          36.0210  195.0649   16.8218 H        29        0    0.0000
    180 H          37.5425  194.2799   16.4133 H        29        0    0.0000
    181 C          37.3660  196.3143   15.6390 C.3      30        0    0.0000
    182 C          38.5855  196.6595   16.5007 C.3      30        0    0.0000
    183 H          37.6460  196.3031   14.5783 H        30        0    0.0000
    184 H          36.5943  197.0857   15.7530 H        30        0    0.0000
    185 H          38.2719  196.8627   17.5322 H        30        0    0.0000
    186 H          39.2709  195.8039   16.5426 H        30        0    0.0000
    187 C          39.3652  197.9052   15.9550 C.3      31        0    0.0000
    188 C          39.9820  198.7432   17.0804 C.3      31        0    0.0000
    189 H          40.1496  197.5593   15.2704 H        31        0    0.0000
    190 H          38.6778  198.5205   15.3614 H        31        0    0.0000
    191 H          39.2338  198.9360   17.8592 H        31        0    0.0000
    192 H          40.7985  198.1880   17.5585 H        31        0    0.0000
    193 C          40.5382  200.1147   16.5635 C.3      32        0    0.0000
    194 C          41.2009  200.9303   17.6791 C.3      32        0    0.0000
    195 H          41.2587  199.9233   15.7586 H        32        0    0.0000
    196 H          39.7136  200.6857   16.1190 H        32        0    0.0000
    197 H          40.5000  201.0677   18.5118 H        32        0    0.0000
    198 H          42.0645  200.3860   18.0808 H        32        0    0.0000
    199 C          41.6776  202.3387   17.1824 C.3      33        0    0.0000
    200 C          42.1195  203.2432   18.3381 C.3      33        0    0.0000
    201 H          42.5042  202.2026   16.4740 H        33        0    0.0000
    202 H          40.8600  202.8126   16.6253 H        33        0    0.0000
    203 H          41.3530  203.2525   19.1228 H        33        0    0.0000
    204 H          43.0347  202.8480   18.7963 H        33        0    0.0000
    205 C          42.3834  204.7165   17.8720 C.3      34        0    0.0000
    206 C          42.4773  205.6908   19.0513 C.3      34        0    0.0000
    207 H          43.3120  204.7418   17.2883 H        34        0    0.0000
    208 H          41.5769  205.0228   17.1943 H        34        0    0.0000
    209 H          41.7422  205.4227   19.8203 H        34        0    0.0000
    210 H          43.4658  205.6181   19.5216 H        34        0    0.0000
    211 C          42.2333  207.1767   18.6153 C.3      35        0    0.0000
    212 C          42.2413  208.1405   19.8069 C.3      35        0    0.0000
    213 H          43.0072  207.4649   17.8931 H        35        0    0.0000
    214 H          41.2728  207.2375   18.0888 H        35        0    0.0000
    215 H          41.4317  207.8859   20.5021 H        35        0    0.0000
    216 H          43.1799  208.0397   20.3659 H        35        0    0.0000
    217 C          42.0753  209.6349   19.3635 C.3      36        0    0.0000
    218 C          42.1940  210.6072   20.5423 C.3      36        0    0.0000
    219 H          42.8357  209.8659   18.6072 H        36        0    0.0000
    220 H          41.0998  209.7526   18.8755 H        36        0    0.0000
    221 H          41.4276  211.3883   20.4643 H        36        0    0.0000
    222 H          42.0102  210.0786   21.4859 H        36        0    0.0000
    223 C          43.6043  211.2882   20.6109 C.3      37        0    0.0000
    224 C          43.7167  212.2748   21.7785 C.3      37        0    0.0000
    225 H          44.3698  210.5077   20.7029 H        37        0    0.0000
    226 H          43.7939  211.8052   19.6621 H        37        0    0.0000
    227 H          44.2349  213.1853   21.4530 H        37        0    0.0000
    228 H          42.7167  212.5823   22.1087 H        37        0    0.0000
    229 C          44.4867  211.6644   23.0000 C.3      38        0    0.0000
    230 C          44.7506  212.7014   24.0973 C.3      38        0    0.0000
    231 H          43.9022  210.8289   23.4047 H        38        0    0.0000
    232 H          45.4352  211.2426   22.6451 H        38        0    0.0000
    233 H          43.8029  213.0231   24.5466 H        38        0    0.0000
    234 H          45.3452  212.2534   24.9030 H        38        0    0.0000
    235 C          45.5058  213.9628   23.5533 C.3      39        0    0.0000
    236 C          45.8080  214.9804   24.6589 C.3      39        0    0.0000
    237 H          46.4385  213.6380   23.0759 H        39        0    0.0000
    238 H          44.8963  214.4291   22.7693 H        39        0    0.0000
    239 H          46.4511  215.7793   24.2693 H        39        0    0.0000
    240 H          44.8793  215.4588   24.9939 H        39        0    0.0000
    241 C          46.5121  214.3227   25.8954 C.3      40        0    0.0000
    242 C          46.5561  215.2615   27.1061 C.3      40        0    0.0000
    243 H          45.9805  213.3988   26.1550 H        40        0    0.0000
    244 H          47.5300  214.0305   25.6087 H        40        0    0.0000
    245 H          47.0255  216.2131   26.8273 H        40        0    0.0000
    246 H          45.5369  215.4977   27.4362 H        40        0    0.0000
    247 C          47.3463  214.6419   28.3099 C.3      41        0    0.0000
    248 C          47.5374  215.6419   29.4556 C.3      41        0    0.0000
    249 H          46.8066  213.7569   28.6692 H        41        0    0.0000
    250 H          48.3216  214.2915   27.9499 H        41        0    0.0000
    251 H          46.6047  216.1907   29.6354 H        41        0    0.0000
    252 H          47.7734  215.1087   30.3849 H        41        0    0.0000
    253 C          48.6811  216.6725   29.1600 C.3      42        0    0.0000
    254 C          48.9076  217.6395   30.3274 C.3      42        0    0.0000
    255 H          49.6050  216.1227   28.9423 H        42        0    0.0000
    256 H          48.4263  217.2326   28.2517 H        42        0    0.0000
    257 H          49.7932  218.2584   30.1368 H        42        0    0.0000
    258 H          48.0568  218.3262   30.4176 H        42        0    0.0000
    259 C          49.0989  216.8901   31.6909 C.3      43        0    0.0000
    260 C          49.3611  217.8552   32.8523 C.3      43        0    0.0000
    261 H          48.2023  216.2915   31.8943 H        43        0    0.0000
    262 H          49.9331  216.1844   31.5926 H        43        0    0.0000
    263 H          48.6198  217.6992   33.6458 H        43        0    0.0000
    264 H          50.3441  217.6525   33.2953 H        43        0    0.0000
    265 C          49.3100  219.3556   32.4010 C.3      44        0    0.0000
    266 C          49.8766  220.3019   33.4653 C.3      44        0    0.0000
    267 H          49.8720  219.4626   31.4650 H        44        0    0.0000
    268 H          48.2698  219.6220   32.1762 H        44        0    0.0000
    269 H          49.0613  220.7230   34.0665 H        44        0    0.0000
    270 H          50.5233  219.7469   34.1562 H        44        0    0.0000
    271 C          50.7004  221.4781   32.8365 C.3      45        0    0.0000
    272 C          51.2924  222.4072   33.9020 C.3      45        0    0.0000
    273 H          51.5021  221.0568   32.2174 H        45        0    0.0000
    274 H          50.0475  222.0464   32.1626 H        45        0    0.0000
    275 H          52.0688  221.8807   34.4709 H        45        0    0.0000
    276 H          51.7800  223.2657   33.4236 H        45        0    0.0000
    277 C          50.2051  222.9353   34.9002 C.3      46        0    0.0000
    278 C          50.8186  223.7162   36.0676 C.3      46        0    0.0000
    279 H          49.5002  223.5717   34.3511 H        46        0    0.0000
    280 H          49.6293  222.0820   35.2797 H        46        0    0.0000
    281 H          50.2682  224.6521   36.2247 H        46        0    0.0000
    282 H          50.7284  223.1381   36.9956 H        46        0    0.0000
    283 C          52.3306  224.0534   35.8274 C.3      47        0    0.0000
    284 C          52.9138  224.9314   36.9401 C.3      47        0    0.0000
    285 H          52.8947  223.1154   35.7537 H        47        0    0.0000
    286 H          52.4307  224.5582   34.8585 H        47        0    0.0000
    287 H          52.3414  224.7949   37.8660 H        47        0    0.0000
    288 H          53.9445  224.6260   37.1590 H        47        0    0.0000
    289 C          52.9072  226.4526   36.5616 C.3      48        0    0.0000
    290 C          53.5207  227.3273   37.6604 C.3      48        0    0.0000
    291 H          53.4590  226.5858   35.6228 H        48        0    0.0000
    292 H          51.8734  226.7639   36.3662 H        48        0    0.0000
    293 H          53.6291  228.3590   37.3034 H        48        0    0.0000
    294 H          52.8522  227.3634   38.5296 H        48        0    0.0000
    295 C          54.9235  226.8027   38.1234 C.3      49        0    0.0000
    296 C          55.4383  227.5393   39.3650 C.3      49        0    0.0000
    297 H          54.8491  225.7275   38.3277 H        49        0    0.0000
    298 H          55.6347  226.9177   37.2960 H        49        0    0.0000
    299 H          55.3175  226.9079   40.2540 H        49        0    0.0000
    300 H          56.5121  227.7403   39.2648 H        49        0    0.0000
    301 C          54.6903  228.8961   39.6036 C.3      50        0    0.0000
    302 C          55.2709  229.6793   40.7862 C.3      50        0    0.0000
    303 H          54.7494  229.4982   38.6884 H        50        0    0.0000
    304 H          53.6270  228.6882   39.7758 H        50        0    0.0000
    305 H          56.2062  230.1700   40.4896 H        50        0    0.0000
    306 H          54.5786  230.4758   41.0861 H        50        0    0.0000
    307 C          55.5527  228.7616   42.0255 C.3      51        0    0.0000
    308 C          56.0890  229.5524   43.2239 C.3      51        0    0.0000
    309 H          54.6252  228.2444   42.3008 H        51        0    0.0000
    310 H          56.2717  227.9857   41.7347 H        51        0    0.0000
    311 H          57.1850  229.5875   43.1913 H        51        0    0.0000
    312 H          55.7390  230.5910   43.1762 H        51        0    0.0000
    313 C          55.6438  228.9314   44.5927 C.3      52        0    0.0000
    314 C          56.7393  228.0623   45.2200 C.3      52        0    0.0000
    315 H          55.3701  229.7439   45.2772 H        52        0    0.0000
    316 H          54.7366  228.3356   44.4323 H        52        0    0.0000
    317 H          57.7165  228.3250   44.7963 H        52        0    0.0000
    318 H          56.8012  228.2552   46.2982 H        52        0    0.0000
    319 C          56.4855  226.5319   44.9943 C.3      53        0    0.0000
    320 C          57.7156  225.8171   44.4240 C.3      53        0    0.0000
    321 H          56.1952  226.0770   45.9494 H        53        0    0.0000
    322 H          55.6321  226.4113   44.3156 H        53        0    0.0000
    323 H          58.3888  226.5444   43.9535 H        53        0    0.0000
    324 H          58.2826  225.3407   45.2333 H        53        0    0.0000
    325 C          57.3313  224.7261   43.3660 C.3      54        0    0.0000
    326 C          58.5581  224.1643   42.6391 C.3      54        0    0.0000
    327 H          56.7911  223.9168   43.8728 H        54        0    0.0000
    328 H          56.6337  225.1656   42.6422 H        54        0    0.0000
    329 H          58.3457  224.0605   41.5678 H        54        0    0.0000
    330 H          59.3998  224.8624   42.7271 H        54        0    0.0000
    331 C          58.9968  222.7697   43.2046 C.3      55        0    0.0000
    332 C          59.9513  222.0332   42.2582 C.3      55        0    0.0000
    333 H          59.4754  222.9185   44.1805 H        55        0    0.0000
    334 H          58.1006  222.1624   43.3826 H        55        0    0.0000
    335 H          59.5992  222.1243   41.2232 H        55        0    0.0000
    336 H          60.9463  222.4938   42.2941 H        55        0    0.0000
    337 C          60.0851  220.5125   42.6144 C.3      56        0    0.0000
    338 C          61.0666  219.7836   41.6901 C.3      56        0    0.0000
    339 H          60.4123  220.4212   43.6576 H        56        0    0.0000
    340 H          59.0939  220.0464   42.5531 H        56        0    0.0000
    341 H          60.7254  219.8525   40.6497 H        56        0    0.0000
    342 H          62.0511  220.2660   41.7314 H        56        0    0.0000
    343 C          61.2287  218.2713   42.0696 C.3      57        0    0.0000
    344 C          62.3082  217.5750   41.2336 C.3      57        0    0.0000
    345 H          61.4741  218.1988   43.1364 H        57        0    0.0000
    346 H          60.2639  217.7671   41.9333 H        57        0    0.0000
    347 H          62.0506  217.6267   40.1684 H        57        0    0.0000
    348 H          63.2678  218.0936   41.3511 H        57        0    0.0000
    349 C          62.4938  216.0714   41.6362 C.3      58        0    0.0000
    350 C          63.1297  215.2437   40.5139 C.3      58        0    0.0000
    351 H          63.1152  216.0212   42.5390 H        58        0    0.0000
    352 H          61.5153  215.6536   41.9037 H        58        0    0.0000
    353 H          62.6106  215.4335   39.5662 H        58        0    0.0000
    354 H          64.1736  215.5476   40.3676 H        58        0    0.0000
    355 C          63.0882  213.7056   40.8134 C.3      59        0    0.0000
    356 C          62.8604  212.8731   39.5469 C.3      59        0    0.0000
    357 H          64.0314  213.4129   41.2914 H        59        0    0.0000
    358 H          62.2916  213.5084   41.5415 H        59        0    0.0000
    359 H          62.0562  213.3152   38.9458 H        59        0    0.0000
    360 H          63.7624  212.8834   38.9226 H        59        0    0.0000
    361 C          62.4884  211.3855   39.8727 C.3      60        0    0.0000
    362 C          62.2901  210.5456   38.6061 C.3      60        0    0.0000
    363 H          63.2822  210.9501   40.4923 H        60        0    0.0000
    364 H          61.5739  211.3742   40.4786 H        60        0    0.0000
    365 H          61.4727  210.9608   38.0036 H        60        0    0.0000
    366 H          63.1923  210.5854   37.9832 H        60        0    0.0000
    367 C          61.9669  209.0466   38.9318 C.3      61        0    0.0000
    368 C          62.2609  208.1185   37.7481 C.3      61        0    0.0000
    369 H          62.5551  208.7398   39.8055 H        61        0    0.0000
    370 H          60.9111  208.9669   39.2191 H        61        0    0.0000
    371 H          61.5469  208.3061   36.9366 H        61        0    0.0000
    372 H          63.2591  208.3286   37.3443 H        61        0    0.0000
    373 C          62.1857  206.6044   38.1473 C.3      62        0    0.0000
    374 C          62.9545  205.7074   37.1709 C.3      62        0    0.0000
    375 H          62.5860  206.4860   39.1618 H        62        0    0.0000
    376 H          61.1322  206.3011   38.1869 H        62        0    0.0000
    377 H          62.5396  205.8090   36.1604 H        62        0    0.0000
    378 H          64.0031  206.0251   37.1142 H        62        0    0.0000
    379 C          62.9059  204.1970   37.5876 C.3      63        0    0.0000
    380 C          63.1599  203.2589   36.4025 C.3      63        0    0.0000
    381 H          63.6526  204.0225   38.3722 H        63        0    0.0000
    382 H          61.9259  203.9843   38.0324 H        63        0    0.0000
    383 H          62.8019  203.7206   35.4739 H        63        0    0.0000
    384 H          64.2373  203.0942   36.2773 H        63        0    0.0000
    385 C          62.4539  201.8708   36.5816 C.3      64        0    0.0000
    386 C          62.5521  201.0025   35.3225 C.3      64        0    0.0000
    387 H          62.9082  201.3504   37.4338 H        64        0    0.0000
    388 H          61.4014  202.0402   36.8405 H        64        0    0.0000
    389 H          63.6040  200.8571   35.0469 H        64        0    0.0000
    390 H          62.1375  200.0061   35.5194 H        64        0    0.0000
    391 C          61.7934  201.6339   34.1046 C.3      65        0    0.0000
    392 C          61.8759  200.7565   32.8506 C.3      65        0    0.0000
    393 H          60.7445  201.7918   34.3848 H        65        0    0.0000
    394 H          62.2172  202.6246   33.8991 H        65        0    0.0000
    395 H          60.8686  200.4644   32.5289 H        65        0    0.0000
    396 H          62.3188  201.3241   32.0229 H        65        0    0.0000
    397 C          62.7263  199.4610   33.0869 C.3      66        0    0.0000
    398 C          62.5823  198.4544   31.9401 C.3      66        0    0.0000
    399 H          63.7789  199.7460   33.2073 H        66        0    0.0000
    400 H          62.4144  199.0008   34.0327 H        66        0    0.0000
    401 H          61.5296  198.3712   31.6427 H        66        0    0.0000
    402 H          63.1318  198.8073   31.0586 H        66        0    0.0000
    403 C          63.1116  197.0310   32.3290 C.3      67        0    0.0000
    404 C          62.9748  196.0264   31.1795 C.3      67        0    0.0000
    405 H          64.1626  197.1152   32.6320 H        67        0    0.0000
    406 H          62.5581  196.6756   33.2070 H        67        0    0.0000
    407 H          61.9202  195.9197   30.8967 H        67        0    0.0000
    408 H          63.5032  196.3961   30.2920 H        67        0    0.0000
    409 C          63.5429  194.6142   31.5540 C.3      68        0    0.0000
    410 C          63.4540  193.6243   30.3873 C.3      68        0    0.0000
    411 H          64.5864  194.7262   31.8736 H        68        0    0.0000
    412 H          62.9885  194.2278   32.4183 H        68        0    0.0000
    413 H          62.4044  193.4556   30.1163 H        68        0    0.0000
    414 H          63.9450  194.0432   29.5003 H        68        0    0.0000
    415 C          64.1161  192.2445   30.7271 C.3      69        0    0.0000
    416 C          63.9434  191.2235   29.5972 C.3      69        0    0.0000
    417 H          65.1823  192.4044   30.9300 H        69        0    0.0000
    418 H          63.6735  191.8586   31.6537 H        69        0    0.0000
    419 H          62.9151  191.2542   29.2163 H        69        0    0.0000
    420 H          64.5989  191.4794   28.7555 H        69        0    0.0000
    421 C          64.2663  189.7618   30.0628 C.3      70        0    0.0000
    422 C          63.7380  188.7096   29.0816 C.3      70        0    0.0000
    423 H          65.3526  189.6587   30.1761 H        70        0    0.0000
    424 H          63.8294  189.6026   31.0564 H        70        0    0.0000
    425 H          63.5677  189.1645   28.0979 H        70        0    0.0000
    426 H          64.4858  187.9198   28.9383 H        70        0    0.0000
    427 C          62.4010  188.0560   29.5743 C.3      71        0    0.0000
    428 C          61.7352  187.2052   28.4872 C.3      71        0    0.0000
    429 H          62.6129  187.4400   30.4571 H        71        0    0.0000
    430 H          61.7185  188.8504   29.9010 H        71        0    0.0000
    431 H          61.6240  187.7911   27.5665 H        71        0    0.0000
    432 H          62.3714  186.3465   28.2393 H        71        0    0.0000
    433 C          60.3248  186.6793   28.9250 C.3      72        0    0.0000
    434 C          59.8301  185.5337   28.0352 C.3      72        0    0.0000
    435 H          60.3795  186.3478   29.9694 H        72        0    0.0000
    436 H          59.6120  187.5128   28.8961 H        72        0    0.0000
    437 H          59.2674  185.9351   27.1833 H        72        0    0.0000
    438 H          60.6841  184.9855   27.6184 H        72        0    0.0000
    439 C          58.9159  184.5274   28.8156 C.3      73        0    0.0000
    440 C          58.7381  183.2026   28.0659 C.3      73        0    0.0000
    441 H          59.3551  184.3442   29.8041 H        73        0    0.0000
    442 H          57.9392  184.9967   28.9869 H        73        0    0.0000
    443 H          57.9948  182.5780   28.5768 H        73        0    0.0000
    444 H          58.3514  183.3905   27.0566 H        73        0    0.0000
    445 C          60.0798  182.3999   27.9516 C.3      74        0    0.0000
    446 C          59.8865  181.0390   27.2736 C.3      74        0    0.0000
    447 H          60.8046  183.0010   27.3887 H        74        0    0.0000
    448 H          60.4969  182.2634   28.9570 H        74        0    0.0000
    449 H          59.4535  181.1744   26.2748 H        74        0    0.0000
    450 H          60.8573  180.5479   27.1322 H        74        0    0.0000
    451 C          58.9557  180.0888   28.1032 C.3      75        0    0.0000
    452 C          58.8486  178.6922   27.4811 C.3      75        0    0.0000
    453 H          59.3459  180.0161   29.1259 H        75        0    0.0000
    454 H          57.9607  180.5449   28.1774 H        75        0    0.0000
    455 H          59.3193  177.9505   28.1382 H        75        0    0.0000
    456 H          57.7947  178.4034   27.3841 H        75        0    0.0000
    457 C          59.5250  178.6175   26.0688 C.3      76        0    0.0000
    458 C          59.6062  177.1816   25.5389 C.3      76        0    0.0000
    459 H          58.9564  179.2444   25.3708 H        76        0    0.0000
    460 H          60.5304  179.0515   26.1349 H        76        0    0.0000
    461 H          59.2995  177.1513   24.4861 H        76        0    0.0000
    462 H          60.6432  176.8253   25.5753 H        76        0    0.0000
    463 C          58.7038  176.1946   26.3568 C.3      77        0    0.0000
    464 C          58.6310  174.8055   25.7133 C.3      77        0    0.0000
    465 H          59.0998  176.1163   27.3769 H        77        0    0.0000
    466 H          57.6975  176.6232   26.4415 H        77        0    0.0000
    467 H          59.4808  174.6601   25.0349 H        77        0    0.0000
    468 H          58.7072  174.0291   26.4847 H        77        0    0.0000
    469 C          57.3015  174.5915   24.9107 C.3      78        0    0.0000
    470 C          56.8873  173.1169   24.8553 C.3      78        0    0.0000
    471 H          56.5073  175.1881   25.3765 H        78        0    0.0000
    472 H          57.4349  174.9832   23.8947 H        78        0    0.0000
    473 H          57.4883  172.5853   24.1072 H        78        0    0.0000
    474 H          57.0860  172.6339   25.8201 H        78        0    0.0000
    475 C          55.3700  172.9388   24.5039 C.3      79        0    0.0000
    476 C          54.9655  171.4636   24.4072 C.3      79        0    0.0000
    477 H          54.7681  173.4445   25.2691 H        79        0    0.0000
    478 H          55.1648  173.4481   23.5542 H        79        0    0.0000
    479 H          55.5978  170.9475   23.6742 H        79        0    0.0000
    480 H          55.1286  170.9649   25.3707 H        79        0    0.0000
    481 C          53.4639  171.2852   23.9938 C.3      80        0    0.0000
    482 C          53.1042  169.8188   23.7306 C.3      80        0    0.0000
    483 H          52.8274  171.6918   24.7894 H        80        0    0.0000
    484 H          53.2702  171.8868   23.0970 H        80        0    0.0000
    485 H          53.8011  169.3853   23.0027 H        80        0    0.0000
    486 H          53.2086  169.2345   24.6533 H        80        0    0.0000
    487 C          51.6419  169.6535   23.1905 C.3      81        0    0.0000
    488 C          51.2982  168.1920   22.8823 C.3      81        0    0.0000
    489 H          50.9427  170.0556   23.9342 H        81        0    0.0000
    490 H          51.5272  170.2655   22.2873 H        81        0    0.0000
    491 H          52.2182  167.6089   22.7514 H        81        0    0.0000
    492 H          50.7599  167.7458   23.7276 H        81        0    0.0000
    493 C          50.4205  168.0477   21.5914 C.3      82        0    0.0000
    494 C          50.1057  166.5839   21.2638 C.3      82        0    0.0000
    495 H          49.4893  168.6103   21.7323 H        82        0    0.0000
    496 H          50.9477  168.5163   20.7511 H        82        0    0.0000
    497 H          49.4005  166.1771   21.9992 H        82        0    0.0000
    498 H          49.6151  166.5146   20.2850 H        82        0    0.0000
    499 C          51.3924  165.6885   21.2486 C.3      83        0    0.0000
    500 C          51.0590  164.1934   21.1998 C.3      83        0    0.0000
    501 H          52.0058  165.9657   20.3823 H        83        0    0.0000
    502 H          51.9892  165.9119   22.1416 H        83        0    0.0000
    503 H          51.0894  163.7680   22.2106 H        83        0    0.0000
    504 H          50.0375  164.0477   20.8272 H        83        0    0.0000
    505 C          52.0494  163.3934   20.2851 C.3      84        0    0.0000
    506 C          51.6941  161.9046   20.2069 C.3      84        0    0.0000
    507 H          52.0392  163.8358   19.2812 H        84        0    0.0000
    508 H          53.0679  163.5172   20.6735 H        84        0    0.0000
    509 H          51.6207  161.4818   21.2166 H        84        0    0.0000
    510 H          50.7098  161.7768   19.7396 H        84        0    0.0000
    511 C          52.7513  161.0835   19.3910 C.3      85        0    0.0000
    512 C          52.3975  159.5942   19.3154 C.3      85        0    0.0000
    513 H          52.8231  161.5049   18.3807 H        85        0    0.0000
    514 H          53.7360  161.2131   19.8571 H        85        0    0.0000
    515 H          52.3013  159.1786   20.3261 H        85        0    0.0000
    516 H          51.4240  159.4631   18.8269 H        85        0    0.0000
    517 C          53.4727  158.7673   18.5294 C.3      86        0    0.0000
    518 C          53.1112  157.2805   18.4406 C.3      86        0    0.0000
    519 H          53.5770  159.1899   17.5224 H        86        0    0.0000
    520 H          54.4440  158.8894   19.0245 H        86        0    0.0000
    521 H          53.0119  156.8567   19.4476 H        86        0    0.0000
    522 H          52.1375  157.1588   17.9501 H        86        0    0.0000
    523 C          54.1828  156.4549   17.6483 C.3      87        0    0.0000
    524 C          53.8361  154.9634   17.5844 C.3      87        0    0.0000
    525 H          54.2668  156.8654   16.6345 H        87        0    0.0000
    526 H          55.1605  156.5937   18.1264 H        87        0    0.0000
    527 H          53.7189  154.5606   18.5981 H        87        0    0.0000
    528 H          52.8742  154.8223   17.0762 H        87        0    0.0000
    529 C          54.9314  154.1305   16.8332 C.3      88        0    0.0000
    530 C          55.2423  152.8073   17.5415 C.3      88        0    0.0000
    531 H          54.5885  153.9375   15.8092 H        88        0    0.0000
    532 H          55.8423  154.7365   16.7515 H        88        0    0.0000
    533 H          55.3125  152.9678   18.6245 H        88        0    0.0000
    534 H          54.4246  152.0937   17.3811 H        88        0    0.0000
    535 C          56.5804  152.1642   17.0381 C.3      89        0    0.0000
    536 C          57.1079  151.0935   17.9996 C.3      89        0    0.0000
    537 H          56.4117  151.7282   16.0456 H        89        0    0.0000
    538 H          57.3279  152.9570   16.9111 H        89        0    0.0000
    539 H          57.2849  151.5315   18.9898 H        89        0    0.0000
    540 H          56.3569  150.3052   18.1335 H        89        0    0.0000
    541 C          58.4394  150.4416   17.4902 C.3      90        0    0.0000
    542 C          58.7854  149.1569   18.2509 C.3      90        0    0.0000
    543 H          58.3417  150.2294   16.4183 H        90        0    0.0000
    544 H          59.2525  151.1708   17.5940 H        90        0    0.0000
    545 H          59.3258  149.4003   19.1741 H        90        0    0.0000
    546 H          57.8664  148.6385   18.5512 H        90        0    0.0000
    547 C          59.6615  148.1777   17.3958 C.3      91        0    0.0000
    548 C          59.5501  146.7271   17.8779 C.3      91        0    0.0000
    549 H          59.3508  148.2503   16.3462 H        91        0    0.0000
    550 H          60.7065  148.5092   17.4387 H        91        0    0.0000
    551 H          60.1987  146.0795   17.2750 H        91        0    0.0000
    552 H          59.9007  146.6471   18.9143 H        91        0    0.0000
    553 C          58.0810  146.1858   17.7983 C.3      92        0    0.0000
    554 C          57.9790  144.7175   18.2257 C.3      92        0    0.0000
    555 H          57.4398  146.8083   18.4347 H        92        0    0.0000
    556 H          57.7156  146.3047   16.7707 H        92        0    0.0000
    557 H          58.1042  144.0626   17.3546 H        92        0    0.0000
    558 H          58.7890  144.4718   18.9236 H        92        0    0.0000
    559 C          56.6066  144.3918   18.9096 C.3      93        0    0.0000
    560 C          56.5307  142.9410   19.3979 C.3      93        0    0.0000
    561 H          56.4586  145.0801   19.7511 H        93        0    0.0000
    562 H          55.7990  144.5907   18.1942 H        93        0    0.0000
    563 H          56.4361  142.9163   20.4906 H        93        0    0.0000
    564 H          55.6347  142.4542   18.9930 H        93        0    0.0000
    565 C          57.7909  142.1071   18.9807 C.3      94        0    0.0000
    566 C          57.9777  140.8610   19.8532 C.3      94        0    0.0000
    567 H          57.6903  141.8172   17.9274 H        94        0    0.0000
    568 H          58.6778  142.7494   19.0474 H        94        0    0.0000
    569 H          57.4437  140.9838   20.8037 H        94        0    0.0000
    570 H          57.5406  139.9855   19.3572 H        94        0    0.0000
    571 C          59.4877  140.5687   20.1561 C.3      95        0    0.0000
    572 C          59.6848  139.2439   20.9012 C.3      95        0    0.0000
    573 H          60.0418  140.5539   19.2094 H        95        0    0.0000
    574 H          59.8966  141.3973   20.7475 H        95        0    0.0000
    575 H          59.4489  139.3718   21.9649 H        95        0    0.0000
    576 H          58.9913  138.4874   20.5134 H        95        0    0.0000
    577 C          61.1496  138.7009   20.7703 C.3      96        0    0.0000
    578 C          61.3255  137.3359   21.4449 C.3      96        0    0.0000
    579 H          61.4069  138.6305   19.7062 H        96        0    0.0000
    580 H          61.8383  139.4310   21.2133 H        96        0    0.0000
    581 H          61.4348  137.4634   22.5290 H        96        0    0.0000
    582 H          60.4306  136.7210   21.2885 H        96        0    0.0000
    583 C          62.5735  136.5600   20.8991 C.3      97        0    0.0000
    584 C          62.7318  135.1822   21.5515 C.3      97        0    0.0000
    585 H          62.4751  136.4522   19.8117 H        97        0    0.0000
    586 H          63.4713  137.1653   21.0757 H        97        0    0.0000
    587 H          63.7004  134.7456   21.2781 H        97        0    0.0000
    588 H          62.7278  135.2807   22.6441 H        97        0    0.0000
    589 C          61.5934  134.1906   21.1294 C.3      98        0    0.0000
    590 C          61.7279  132.8262   21.8146 C.3      98        0    0.0000
    591 H          60.6235  134.6407   21.3746 H        98        0    0.0000
    592 H          61.6173  134.0681   20.0394 H        98        0    0.0000
    593 H          62.4752  132.2154   21.2931 H        98        0    0.0000
    594 H          62.0885  132.9555   22.8426 H        98        0    0.0000
    595 C          60.3705  132.0428   21.8500 C.3      99        0    0.0000
    596 C          60.5123  130.6645   22.5052 C.3      99        0    0.0000
    597 H          59.6299  132.6430   22.3928 H        99        0    0.0000
    598 H          59.9977  131.9350   20.8239 H        99        0    0.0000
    599 H          61.3137  130.0965   22.0168 H        99        0    0.0000
    600 H          60.8015  130.7763   23.5575 H        99        0    0.0000
    601 C          59.1858  129.8324   22.4313 C.3     100        0    0.0000
    602 C          59.3764  128.3912   22.9169 C.3     100        0    0.0000
    603 H          58.4194  130.3344   23.0348 H       100        0    0.0000
    604 H          58.8235  129.8356   21.3958 H       100        0    0.0000
    605 H          60.2125  127.9221   22.3836 H       100        0    0.0000
    606 H          59.6389  128.3848   23.9821 H       100        0    0.0000
    607 C          58.0907  127.5190   22.7080 C.3     101        0    0.0000
    608 C          58.2903  126.0707   23.1681 C.3     101        0    0.0000
    609 H          57.2594  127.9771   23.2581 H       101        0    0.0000
    610 H          57.8165  127.5419   21.6461 H       101        0    0.0000
    611 H          59.0886  125.5969   22.5833 H       101        0    0.0000
    612 H          58.6131  126.0500   24.2164 H       101        0    0.0000
    613 C          56.9838  125.2163   23.0247 C.3     102        0    0.0000
    614 C          57.1222  123.8312   23.6661 C.3     102        0    0.0000
    615 H          56.1516  125.7628   23.4856 H       102        0    0.0000
    616 H          56.7426  125.1152   21.9593 H       102        0    0.0000
    617 H          56.1731  123.2860   23.5925 H       102        0    0.0000
    618 H          57.8690  123.2384   23.1234 H       102        0    0.0000
    619 C          57.5417  123.9141   25.1743 C.3     103        0    0.0000
    620 C          57.9496  122.5492   25.7396 C.3     103        0    0.0000
    621 H          58.3715  124.6250   25.2719 H       103        0    0.0000
    622 H          56.7047  124.3257   25.7520 H       103        0    0.0000
    623 H          57.0791  122.0505   26.1835 H       103        0    0.0000
    624 H          58.3070  121.8989   24.9315 H       103        0    0.0000
    625 C          59.0727  122.6680   26.8268 C.3     104        0    0.0000
    626 C          59.3980  121.3182   27.4757 C.3     104        0    0.0000
    627 H          59.9728  123.0880   26.3609 H       104        0    0.0000
    628 H          58.7500  123.3851   27.5917 H       104        0    0.0000
    629 H          59.8742  120.6539   26.7439 H       104        0    0.0000
    630 H          60.1188  121.4568   28.2911 H       104        0    0.0000
    631 C          58.1209  120.6096   28.0453 C.3     105        0    0.0000
    632 C          58.4192  119.1944   28.5523 C.3     105        0    0.0000
    633 H          57.7097  121.2214   28.8578 H       105        0    0.0000
    634 H          57.3561  120.5743   27.2595 H       105        0    0.0000
    635 H          59.0688  118.6691   27.8412 H       105        0    0.0000
    636 H          58.9660  119.2426   29.5022 H       105        0    0.0000
    637 C          57.1144  118.3513   28.7626 C.3     106        0    0.0000
    638 C          57.4133  116.9324   29.2590 C.3     106        0    0.0000
    639 H          56.4684  118.8725   29.4800 H       106        0    0.0000
    640 H          56.5635  118.3100   27.8148 H       106        0    0.0000
    641 H          58.1223  116.4389   28.5827 H       106        0    0.0000
    642 H          57.8936  116.9721   30.2446 H       106        0    0.0000
    643 C          56.1189  116.0542   29.3626 C.3     107        0    0.0000
    644 C          56.4369  114.5825   29.6488 C.3     107        0    0.0000
    645 H          55.4778  116.4614   30.1543 H       107        0    0.0000
    646 H          55.5560  116.1420   28.4251 H       107        0    0.0000
    647 H          57.1502  114.2008   28.9078 H       107        0    0.0000
    648 H          56.9191  114.4856   30.6294 H       107        0    0.0000
    649 C          55.1538  113.6821   29.6255 C.3     108        0    0.0000
    650 C          55.3658  112.3893   28.8300 C.3     108        0    0.0000
    651 H          54.8688  113.4458   30.6582 H       108        0    0.0000
    652 H          54.3256  114.2577   29.1940 H       108        0    0.0000
    653 H          55.8926  112.6065   27.8926 H       108        0    0.0000
    654 H          56.0030  111.6991   29.3967 H       108        0    0.0000
    655 C          54.0141  111.6695   28.4950 C.3     109        0    0.0000
    656 C          54.1318  110.1437   28.5805 C.3     109        0    0.0000
    657 H          53.2421  112.0266   29.1878 H       109        0    0.0000
    658 H          53.6955  111.9663   27.4881 H       109        0    0.0000
    659 H          54.7724  109.7700   27.7721 H       109        0    0.0000
    660 H          54.6137  109.8558   29.5230 H       109        0    0.0000
    661 C          52.7369  109.4342   28.4888 C.3     110        0    0.0000
    662 C          52.8618  107.9067   28.4789 C.3     110        0    0.0000
    663 H          52.1202  109.7557   29.3373 H       110        0    0.0000
    664 H          52.2255  109.7757   27.5803 H       110        0    0.0000
    665 H          53.5175  107.5881   27.6591 H       110        0    0.0000
    666 H          53.3300  107.5615   29.4091 H       110        0    0.0000
    667 C          51.4726  107.1980   28.3193 C.3     111        0    0.0000
    668 C          51.5933  105.6704   28.3465 C.3     111        0    0.0000
    669 H          50.8081  107.5373   29.1236 H       111        0    0.0000
    670 H          51.0164  107.5226   27.3758 H       111        0    0.0000
    671 H          52.2258  105.3282   27.5180 H       111        0    0.0000
    672 H          52.0856  105.3484   29.2725 H       111        0    0.0000
    673 C          50.1985  104.9623   28.2432 C.3     112        0    0.0000
    674 C          50.3224  103.4348   28.2254 C.3     112        0    0.0000
    675 H          49.5773  105.2795   29.0900 H       112        0    0.0000
    676 H          49.6923  105.3093   27.3338 H       112        0    0.0000
    677 H          50.9682  103.1194   27.3965 H       112        0    0.0000
    678 H          50.8013  103.0855   29.1485 H       112        0    0.0000
    679 C          48.9310  102.7275   28.0791 C.3     113        0    0.0000
    680 C          49.0652  101.2089   27.9211 C.3     113        0    0.0000
    681 H          48.3210  102.9616   28.9604 H       113        0    0.0000
    682 H          48.4084  103.1512   27.2126 H       113        0    0.0000
    683 H          48.3842  100.6972   28.6125 H       113        0    0.0000
    684 H          48.7699  100.9086   26.9081 H       113        0    0.0000
    685 C          50.5269  100.7104   28.1901 C.3     114        0    0.0000
    686 C          50.7544   99.2802   27.6883 C.3     114        0    0.0000
    687 H          51.2300  101.3967   27.7019 H       114        0    0.0000
    688 H          50.7274  100.7676   29.2672 H       114        0    0.0000
    689 H          50.5816   98.5644   28.5015 H       114        0    0.0000
    690 H          50.0326   99.0396   26.8980 H       114        0    0.0000
    691 C          52.2040   99.0702   27.1297 C.3     115        0    0.0000
    692 C          52.4602   97.6184   26.7105 C.3     115        0    0.0000
    693 H          52.3540   99.7407   26.2745 H       115        0    0.0000
    694 H          52.9263   99.3729   27.8979 H       115        0    0.0000
    695 H          52.0522   96.9320   27.4629 H       115        0    0.0000
    696 H          51.9390   97.4008   25.7701 H       115        0    0.0000
    697 C          53.9867   97.3144   26.5242 C.3     116        0    0.0000
    698 C          54.2424   95.8649   26.0968 C.3     116        0    0.0000
    699 H          54.3961   98.0048   25.7763 H       116        0    0.0000
    700 H          54.5070   97.5261   27.4665 H       116        0    0.0000
    701 H          55.2965   95.7340   25.8224 H       116        0    0.0000
    702 H          54.0487   95.1855   26.9361 H       116        0    0.0000
    703 C          53.3473   95.4367   24.8832 C.3     117        0    0.0000
    704 C          53.4605   93.9390   24.5779 C.3     117        0    0.0000
    705 H          52.3048   95.6980   25.1031 H       117        0    0.0000
    706 H          53.6403   96.0231   24.0035 H       117        0    0.0000
    707 H          52.8448   93.3642   25.2808 H       117        0    0.0000
    708 H          53.0713   93.7293   23.5739 H       117        0    0.0000
    709 C          54.9390   93.4252   24.6641 C.3     118        0    0.0000
    710 C          55.0952   92.0081   24.1016 C.3     118        0    0.0000
    711 H          55.5876   94.1206   24.1171 H       118        0    0.0000
    712 H          55.2619   93.4515   25.7123 H       118        0    0.0000
    713 H          56.1307   91.6670   24.2234 H       118        0    0.0000
    714 H          54.4648   91.3084   24.6642 H       118        0    0.0000
    715 C          54.7113   91.9257   22.5839 C.3     119        0    0.0000
    716 C          55.0790   90.5730   21.9643 C.3     119        0    0.0000
    717 H          53.6340   92.1061   22.4814 H       119        0    0.0000
    718 H          55.2190   92.7361   22.0463 H       119        0    0.0000
    719 H          55.9206   90.1264   22.5082 H       119        0    0.0000
    720 H          54.2376   89.8752   22.0579 H       119        0    0.0000
    721 C          55.4654   90.6983   20.4502 C.3     120        0    0.0000
    722 C          55.8809   89.3536   19.8435 C.3     120        0    0.0000
    723 H          54.6106   91.1111   19.9002 H       120        0    0.0000
    724 H          56.2827   91.4236   20.3528 H       120        0    0.0000
    725 H          55.2547   88.5488   20.2482 H       120        0    0.0000
    726 H          55.7182   89.3641   18.7586 H       120        0    0.0000
    727 C          57.3850   89.0139   20.1257 C.3     121        0    0.0000
    728 C          57.7777   87.6309   19.5945 C.3     121        0    0.0000
    729 H          58.0142   89.7861   19.6658 H       121        0    0.0000
    730 H          57.5624   89.0658   21.2071 H       121        0    0.0000
    731 H          56.8879   86.9954   19.5060 H       121        0    0.0000
    732 H          58.2017   87.7215   18.5867 H       121        0    0.0000
    733 C          58.8210   86.9137   20.5190 C.3     122        0    0.0000
    734 C          59.2044   85.5256   19.9943 C.3     122        0    0.0000
    735 H          59.7144   87.5451   20.6003 H       122        0    0.0000
    736 H          58.4006   86.8311   21.5289 H       122        0    0.0000
    737 H          59.6204   85.6076   18.9825 H       122        0    0.0000
    738 H          59.9900   85.0894   20.6236 H       122        0    0.0000
    739 C          57.9819   84.5449   19.9600 C.3     123        0    0.0000
    740 C          58.3698   83.1506   19.4556 C.3     123        0    0.0000
    741 H          57.5561   84.4751   20.9686 H       123        0    0.0000
    742 H          57.2025   84.9738   19.3180 H       123        0    0.0000
    743 H          58.8779   83.2290   18.4865 H       123        0    0.0000
    744 H          59.0819   82.6848   20.1480 H       123        0    0.0000
    745 C          57.1268   82.2082   19.2995 C.3     124        0    0.0000
    746 C          57.5081   80.8305   18.7468 C.3     124        0    0.0000
    747 H          56.6402   82.0999   20.2768 H       124        0    0.0000
    748 H          56.3981   82.6909   18.6366 H       124        0    0.0000
    749 H          58.0209   80.9405   17.7832 H       124        0    0.0000
    750 H          58.2144   80.3355   19.4248 H       124        0    0.0000
    751 C          56.2600   79.9023   18.5519 C.3     125        0    0.0000
    752 C          56.5836   78.6628   17.7104 C.3     125        0    0.0000
    753 H          55.8864   79.6003   19.5382 H       125        0    0.0000
    754 H          55.4593   80.4817   18.0757 H       125        0    0.0000
    755 H          57.0337   78.9631   16.7561 H       125        0    0.0000
    756 H          57.3253   78.0408   18.2267 H       125        0    0.0000
    757 C          55.3115   77.7945   17.4180 C.3     126        0    0.0000
    758 C          55.5177   76.3206   17.7842 C.3     126        0    0.0000
    759 H          54.4649   78.2071   17.9807 H       126        0    0.0000
    760 H          55.0577   77.8861   16.3547 H       126        0    0.0000
    761 H          55.9537   75.7795   16.9353 H       126        0    0.0000
    762 H          56.2318   76.2351   18.6126 H       126        0    0.0000
    763 C          54.1784   75.6181   18.1970 C.3     127        0    0.0000
    764 C          53.7397   74.5599   17.1788 C.3     127        0    0.0000
    765 H          54.3100   75.1584   19.1844 H       127        0    0.0000
    766 H          53.3979   76.3813   18.3064 H       127        0    0.0000
    767 H          53.6986   74.9988   16.1742 H       127        0    0.0000
    768 H          54.4770   73.7486   17.1382 H       127        0    0.0000
    769 C          52.3366   73.9509   17.5220 C.3     128        0    0.0000
    770 C          52.2152   72.4877   17.0822 C.3     128        0    0.0000
    771 H          52.1701   74.0337   18.6032 H       128        0    0.0000
    772 H          51.5604   74.5553   17.0365 H       128        0    0.0000
    773 H          52.1135   72.4300   15.9914 H       128        0    0.0000
    774 H          53.1290   71.9395   17.3428 H       128        0    0.0000
    775 C          50.9888   71.7686   17.7428 C.3     129        0    0.0000
    776 C          50.8668   70.3057   17.3023 C.3     129        0    0.0000
    777 H          51.0908   71.8258   18.8336 H       129        0    0.0000
    778 H          50.0750   72.3172   17.4826 H       129        0    0.0000
    779 H          50.7986   70.2465   16.2090 H       129        0    0.0000
    780 H          51.7667   69.7492   17.5924 H       129        0    0.0000
    781 C          49.6135   69.6000   17.9258 C.3     130        0    0.0000
    782 C          49.1193   68.4298   17.0682 C.3     130        0    0.0000
    783 H          49.8707   69.2467   18.9320 H       130        0    0.0000
    784 H          48.8141   70.3415   18.0470 H       130        0    0.0000
    785 H          49.0371   68.7405   16.0193 H       130        0    0.0000
    786 H          49.8462   67.6086   17.0976 H       130        0    0.0000
    787 C          47.7273   67.8896   17.5458 C.3     131        0    0.0000
    788 C          47.0239   67.0612   16.4651 C.3     131        0    0.0000
    789 H          47.8739   67.2836   18.4484 H       131        0    0.0000
    790 H          47.0986   68.7405   17.8362 H       131        0    0.0000
    791 H          46.9706   67.6312   15.5293 H       131        0    0.0000
    792 H          47.6033   66.1549   16.2493 H       131        0    0.0000
    793 C          45.5725   66.6446   16.8865 C.3     132        0    0.0000
    794 C          44.7704   66.0681   15.7146 C.3     132        0    0.0000
    795 H          45.6373   65.9078   17.6966 H       132        0    0.0000
    796 H          45.0586   67.5218   17.2987 H       132        0    0.0000
    797 H          44.7476   66.7858   14.8851 H       132        0    0.0000
    798 H          45.2585   65.1623   15.3342 H       132        0    0.0000
    799 C          43.2972   65.7165   16.1190 C.3     133        0    0.0000
    800 C          42.6664   64.6857   15.1764 C.3     133        0    0.0000
    801 H          43.2942   65.3365   17.1482 H       133        0    0.0000
    802 H          42.7017   66.6378   16.1216 H       133        0    0.0000
    803 H          42.5067   65.1298   14.1860 H       133        0    0.0000
    804 H          43.3484   63.8381   15.0352 H       133        0    0.0000
    805 C          41.2964   64.1475   15.7157 C.3     134        0    0.0000
    806 C          40.9247   62.7912   15.1064 C.3     134        0    0.0000
    807 H          41.3539   64.0660   16.8083 H       134        0    0.0000
    808 H          40.5152   64.8856   15.4956 H       134        0    0.0000
    809 H          40.6040   62.9216   14.0654 H       134        0    0.0000
    810 H          41.8034   62.1347   15.0855 H       134        0    0.0000
    811 C          39.7787   62.0764   15.9023 C.3     135        0    0.0000
    812 C          39.5107   60.6582   15.3866 C.3     135        0    0.0000
    813 H          40.0521   62.0451   16.9643 H       135        0    0.0000
    814 H          38.8668   62.6818   15.8294 H       135        0    0.0000
    815 H          39.6575   60.6189   14.3002 H       135        0    0.0000
    816 H          40.2290   59.9557   15.8272 H       135        0    0.0000
    817 C          38.0583   60.1701   15.7182 C.3     136        0    0.0000
    818 C          37.7527   58.7984   15.1066 C.3     136        0    0.0000
    819 H          37.9385   60.1312   16.8080 H       136        0    0.0000
    820 H          37.3421   60.9146   15.3489 H       136        0    0.0000
    821 H          38.4448   58.5921   14.2807 H       136        0    0.0000
    822 H          37.9096   58.0102   15.8534 H       136        0    0.0000
    823 C          36.2829   58.7011   14.5704 C.3     137        0    0.0000
    824 C          35.9772   57.3293   13.9590 C.3     137        0    0.0000
    825 H          35.5908   58.9076   15.3962 H       137        0    0.0000
    826 H          36.1261   59.4892   13.8234 H       137        0    0.0000
    827 H          36.5434   57.1975   13.0287 H       137        0    0.0000
    828 H          36.3013   56.5331   14.6406 H       137        0    0.0000
    829 C          34.4512   57.1421   13.6527 C.3     138        0    0.0000
    830 C          34.1314   55.7363   13.1327 C.3     138        0    0.0000
    831 H          33.8796   57.3441   14.5670 H       138        0    0.0000
    832 H          34.1435   57.8946   12.9161 H       138        0    0.0000
    833 H          34.6305   55.5686   12.1703 H       138        0    0.0000
    834 H          34.5218   54.9809   13.8260 H       138        0    0.0000
    835 C          32.5915   55.5065   12.9501 C.3     139        0    0.0000
    836 C          32.2349   54.0199   12.8413 C.3     139        0    0.0000
    837 H          32.0634   55.9588   13.7987 H       139        0    0.0000
    838 H          32.2585   56.0400   12.0512 H       139        0    0.0000
    839 H          32.6763   53.5928   11.9322 H       139        0    0.0000
    840 H          32.6614   53.4678   13.6879 H       139        0    0.0000
    841 C          30.6859   53.7811   12.8112 C.3     140        0    0.0000
    842 C          30.3182   52.3186   13.0851 C.3     140        0    0.0000
    843 H          30.2130   54.4336   13.5555 H       140        0    0.0000
    844 H          30.2996   54.0889   11.8316 H       140        0    0.0000
    845 H          30.7728   51.6682   12.3277 H       140        0    0.0000
    846 H          30.7235   52.0041   14.0548 H       140        0    0.0000
    847 C          28.7679   52.0860   13.0861 C.3     141        0    0.0000
    848 C          28.3728   50.8013   12.3496 C.3     141        0    0.0000
    849 H          28.4168   52.0473   14.1248 H       141        0    0.0000
    850 H          28.2801   52.9515   12.6208 H       141        0    0.0000
    851 H          28.8448   50.7749   11.3596 H       141        0    0.0000
    852 H          28.7411   49.9251   12.8976 H       141        0    0.0000
    853 C          26.8206   50.6711   12.1730 C.3     142        0    0.0000
    854 C          26.3878   49.2294   11.8842 C.3     142        0    0.0000
    855 H          26.3293   51.0361   13.0834 H       142        0    0.0000
    856 H          26.5011   51.3305   11.3565 H       142        0    0.0000
    857 H          26.8258   48.8875   10.9382 H       142        0    0.0000
    858 H          26.7654   48.5594   12.6665 H       142        0    0.0000
    859 C          24.8293   49.0823   11.8018 C.3     143        0    0.0000
    860 C          24.4000   47.6679   11.3964 C.3     143        0    0.0000
    861 H          24.3976   49.3416   12.7764 H       143        0    0.0000
    862 H          24.4426   49.8137   11.0813 H       143        0    0.0000
    863 H          24.9603   47.3441   10.5106 H       143        0    0.0000
    864 H          24.6397   46.9579   12.1977 H       143        0    0.0000
    865 C          22.8663   47.5789   11.0846 C.3     144        0    0.0000
    866 C          22.4391   46.1670   10.6686 C.3     144        0    0.0000
    867 H          22.3059   47.8951   11.9732 H       144        0    0.0000
    868 H          22.6251   48.2947   10.2889 H       144        0    0.0000
    869 H          21.3447   46.1012   10.6302 H       144        0    0.0000
    870 H          22.8036   45.9462    9.6578 H       144        0    0.0000
    871 C          22.9771   45.0700   11.6507 C.3     145        0    0.0000
    872 C          22.9066   43.6636   11.0455 C.3     145        0    0.0000
    873 H          24.0129   45.3126   11.9187 H       145        0    0.0000
    874 H          22.3939   45.1097   12.5790 H       145        0    0.0000
    875 H          21.9752   43.5446   10.4781 H       145        0    0.0000
    876 H          23.7294   43.5184   10.3345 H       145        0    0.0000
    877 C          22.9793   42.5422   12.1384 C.3     146        0    0.0000
    878 C          22.7918   41.1410   11.5463 C.3     146        0    0.0000
    879 H          23.9481   42.6083   12.6489 H       146        0    0.0000
    880 H          22.2101   42.7365   12.8961 H       146        0    0.0000
    881 H          23.0028   41.1562   10.4699 H       146        0    0.0000
    882 H          23.5076   40.4429   11.9979 H       146        0    0.0000
    883 C          21.3407   40.5913   11.7691 C.3     147        0    0.0000
    884 C          21.1695   39.1676   11.2280 C.3     147        0    0.0000
    885 H          21.1142   40.6156   12.8422 H       147        0    0.0000
    886 H          20.6277   41.2674   11.2812 H       147        0    0.0000
    887 H          20.9299   38.4797   12.0483 H       147        0    0.0000
    888 H          20.3251   39.1300   10.5286 H       147        0    0.0000
    889 C          22.4558   38.6518   10.4954 C.3     148        0    0.0000
    890 C          22.1787   37.4109    9.6395 C.3     148        0    0.0000
    891 H          22.8539   39.4596    9.8689 H       148        0    0.0000
    892 H          23.2241   38.4273   11.2457 H       148        0    0.0000
    893 H          22.9885   36.6810    9.7619 H       148        0    0.0000
    894 H          21.2578   36.9193    9.9769 H       148        0    0.0000
    895 C          22.0374   37.7585    8.1174 C.3     149        0    0.0000
    896 C          21.9915   36.5047    7.2372 C.3     149        0    0.0000
    897 H          21.1265   38.3527    7.9735 H       149        0    0.0000
    898 H          22.8795   38.3959    7.8206 H       149        0    0.0000
    899 H          22.9327   35.9481    7.3260 H       149        0    0.0000
    900 H          21.1948   35.8331    7.5803 H       149        0    0.0000
    901 C          21.7478   36.8476    5.7270 C.3     150        0    0.0000
    902 C          21.6471   35.5912    4.8550 C.3     150        0    0.0000
    903 H          20.8275   37.4387    5.6427 H       150        0    0.0000
    904 H          22.5663   37.4866    5.3730 H       150        0    0.0000
    905 H          22.6378   35.1350    4.7367 H       150        0    0.0000
    906 H          21.0123   34.8428    5.3454 H       150        0    0.0000
    907 C          21.0598   35.8994    3.4346 C.3     151        0    0.0000
    908 C          20.9400   34.6397    2.5698 C.3     151        0    0.0000
    909 H          20.0756   36.3693    3.5533 H       151        0    0.0000
    910 H          21.7031   36.6365    2.9383 H       151        0    0.0000
    911 H          21.9227   34.1650    2.4584 H       151        0    0.0000
    912 H          20.2897   33.9060    3.0621 H       151        0    0.0000
    913 C          20.3642   34.9497    1.1451 C.3     152        0    0.0000
    914 C          20.5284   33.7684    0.1826 C.3     152        0    0.0000
    915 H          19.3032   35.2115    1.2418 H       152        0    0.0000
    916 H          20.8718   35.8355    0.7436 H       152        0    0.0000
    917 H          21.5684   33.4193    0.1895 H       152        0    0.0000
    918 H          19.9107   32.9245    0.5139 H       152        0    0.0000
    919 C          20.1298   34.1399   -1.2873 C.3     153        0    0.0000
    920 C          20.7815   33.2116   -2.3181 C.3     153        0    0.0000
    921 H          19.0375   34.0962   -1.3793 H       153        0    0.0000
    922 H          20.4209   35.1798   -1.4806 H       153        0    0.0000
    923 H          21.8616   33.1474   -2.1369 H       153        0    0.0000
    924 H          20.3835   32.1946   -2.2132 H       153        0    0.0000
    925 C          20.5440   33.6977   -3.7894 C.3     154        0    0.0000
    926 C          21.0904   32.7074   -4.8237 C.3     154        0    0.0000
    927 H          19.4681   33.8469   -3.9432 H       154        0    0.0000
    928 H          21.0197   34.6777   -3.9191 H       154        0    0.0000
    929 H          22.1712   32.5783   -4.6866 H       154        0    0.0000
    930 H          20.6342   31.7205   -4.6772 H       154        0    0.0000
    931 C          20.8201   33.1756   -6.2952 C.3     155        0    0.0000
    932 C          21.5394   32.2979   -7.3254 C.3     155        0    0.0000
    933 H          19.7384   33.1605   -6.4780 H       155        0    0.0000
    934 H          21.1427   34.2189   -6.3992 H       155        0    0.0000
    935 H          22.6180   32.2901   -7.1253 H       155        0    0.0000
    936 H          21.1957   31.2595   -7.2404 H       155        0    0.0000
    937 C          21.3016   32.7902   -8.7946 C.3     156        0    0.0000
    938 C          20.8646   31.6530   -9.7246 C.3     156        0    0.0000
    939 H          20.5410   33.5807   -8.7840 H       156        0    0.0000
    940 H          22.2261   33.2475   -9.1683 H       156        0    0.0000
    941 H          21.7226   31.0129   -9.9651 H       156        0    0.0000
    942 H          20.1281   31.0159   -9.2195 H       156        0    0.0000
    943 C          20.2409   32.1848  -11.0609 C.3     157        0    0.0000
    944 C          21.0503   31.7575  -12.2902 C.3     157        0    0.0000
    945 H          19.2109   31.8158  -11.1418 H       157        0    0.0000
    946 H          20.1805   33.2791  -11.0120 H       157        0    0.0000
    947 H          22.1109   31.6607  -12.0272 H       157        0    0.0000
    948 H          20.7194   30.7695  -12.6336 H       157        0    0.0000
    949 C          20.9142   32.7756  -13.4744 C.3     158        0    0.0000
    950 C          20.8193   32.0754  -14.8345 C.3     158        0    0.0000
    951 H          20.0244   33.3953  -13.3075 H       158        0    0.0000
    952 H          21.7771   33.4529  -13.4594 H       158        0    0.0000
    953 H          21.7785   31.6044  -15.0828 H       158        0    0.0000
    954 H          20.0748   31.2707  -14.7921 H       158        0    0.0000
    955 C          20.4289   33.0648  -15.9861 C.3     159        0    0.0000
    956 C          20.6597   32.4593  -17.3751 C.3     159        0    0.0000
    957 H          19.3751   33.3459  -15.8687 H       159        0    0.0000
    958 H          21.0149   33.9855  -15.8751 H       159        0    0.0000
    959 H          21.6975   32.1163  -17.4683 H       159        0    0.0000
    960 H          20.0227   31.5765  -17.5112 H       159        0    0.0000
    961 C          20.3600   33.4809  -18.5257 C.3     160        0    0.0000
    962 C          20.5444   32.8612  -19.9153 C.3     160        0    0.0000
    963 H          19.3333   33.8505  -18.4120 H       160        0    0.0000
    964 H          21.0217   34.3482  -18.4098 H       160        0    0.0000
    965 H          21.5736   32.4999  -20.0325 H       160        0    0.0000
    966 H          19.8894   31.9884  -20.0280 H       160        0    0.0000
    967 C          20.2323   33.8791  -21.0660 C.3     161        0    0.0000
    968 C          20.4206   33.2606  -22.4556 C.3     161        0    0.0000
    969 H          19.2021   34.2382  -20.9506 H       161        0    0.0000
    970 H          20.8852   34.7532  -20.9516 H       161        0    0.0000
    971 H          21.4498   32.8981  -22.5696 H       161        0    0.0000
    972 H          19.7649   32.3886  -22.5713 H       161        0    0.0000
    973 C          20.1135   34.2799  -23.6062 C.3     162        0    0.0000
    974 C          20.2963   33.6598  -24.9958 C.3     162        0    0.0000
    975 H          19.0857   34.6455  -23.4897 H       162        0    0.0000
    976 H          20.7721   35.1500  -23.4930 H       162        0    0.0000
    977 H          21.3240   33.2938  -25.1121 H       162        0    0.0000
    978 H          19.6374   32.7900  -25.1092 H       162        0    0.0000
    979 C          19.9897   34.6793  -26.1464 C.3     163        0    0.0000
    980 C          20.1735   34.0594  -27.5360 C.3     163        0    0.0000
    981 H          18.9619   35.0448  -26.0305 H       163        0    0.0000
    982 H          20.6482   35.5494  -26.0327 H       163        0    0.0000
    983 H          21.2014   33.6943  -27.6522 H       163        0    0.0000
    984 H          19.5153   33.1891  -27.6497 H       163        0    0.0000
    985 C          19.8663   35.0788  -28.6867 C.3     164        0    0.0000
    986 C          20.0536   34.4599  -30.0763 C.3     164        0    0.0000
    987 H          18.8374   35.4419  -28.5721 H       164        0    0.0000
    988 H          20.5226   35.9503  -28.5715 H       164        0    0.0000
    989 H          21.0821   34.0957  -30.1904 H       164        0    0.0000
    990 H          19.3964   33.5891  -30.1919 H       164        0    0.0000
    991 C          19.7481   35.4798  -31.2269 C.3     165        0    0.0000
    992 C          19.9342   34.8606  -32.6165 C.3     165        0    0.0000
    993 H          18.7199   35.8447  -31.1123 H       165        0    0.0000
    994 H          20.4059   36.3502  -31.1118 H       165        0    0.0000
    995 H          20.9634   34.4990  -32.7324 H       165        0    0.0000
    996 H          19.2790   33.9881  -32.7303 H       165        0    0.0000
    997 C          19.6239   35.8791  -33.7672 C.3     166        0    0.0000
    998 C          19.8107   35.2601  -35.1568 C.3     166        0    0.0000
    999 H          18.5944   36.2403  -33.6516 H       166        0    0.0000
   1000 H          20.2786   36.7519  -33.6530 H       166        0    0.0000
   1001 H          20.8362   34.8865  -35.2673 H       166        0    0.0000
   1002 H          19.1459   34.3956  -35.2760 H       166        0    0.0000
   1003 C          19.5192   36.2841  -36.3074 C.3     167        0    0.0000
   1004 C          19.7053   35.6650  -37.6970 C.3     167        0    0.0000
   1005 H          18.4938   36.6581  -36.1965 H       167        0    0.0000
   1006 H          20.1843   37.1484  -36.1884 H       167        0    0.0000
   1007 H          19.3356   36.3525  -38.4677 H       167        0    0.0000
   1008 H          20.7722   35.5090  -37.8994 H       167        0    0.0000
   1009 C          18.9580   34.2945  -37.8417 C.3     168        0    0.0000
   1010 C          19.3670   33.5412  -39.1122 C.3     168        0    0.0000
   1011 H          19.1688   33.6816  -36.9566 H       168        0    0.0000
   1012 H          17.8767   34.4802  -37.8461 H       168        0    0.0000
   1013 H          20.0416   32.7141  -38.8585 H       168        0    0.0000
   1014 H          18.4840   33.0938  -39.5851 H       168        0    0.0000
   1015 C          20.0793   34.4733  -40.1522 C.3     169        0    0.0000
   1016 C          20.5534   33.7056  -41.3911 C.3     169        0    0.0000
   1017 H          19.3852   35.2703  -40.4463 H       169        0    0.0000
   1018 H          20.9314   34.9619  -39.6636 H       169        0    0.0000
   1019 H          19.6945   33.2638  -41.9114 H       169        0    0.0000
   1020 H          21.0313   34.3933  -42.0998 H       169        0    0.0000
   1021 C          21.5674   32.5654  -41.0316 C.3     170        0    0.0000
   1022 C          22.8381   32.6274  -41.8862 C.3     170        0    0.0000
   1023 H          21.8251   32.6437  -39.9681 H       170        0    0.0000
   1024 H          21.0713   31.5960  -41.1649 H       170        0    0.0000
   1025 H          22.5804   32.5490  -42.9497 H       170        0    0.0000
   1026 H          23.3342   33.5967  -41.7529 H       170        0    0.0000
   1027 H          23.5432   31.8346  -41.6362 H       170        0    0.0000
   1028 H          19.2798  174.4287  -40.4349 H         0        0    0.0000
@<TRIPOS>BOND
     1     1     2      1
     2     1     3      1
     3     1     4      1
     4     1  1028      H
     5     2     5      1
     6     2     6      1
     7     2     7      1
     8     7     8      1
     9     7     9      1
    10     7    10      1
    11     8    11      1
    12     8    12      1
    13     8    13      1
    14    13    14      1
    15    13    15      1
    16    13    16      1
    17    14    17      1
    18    14    18      1
    19    14    19      1
    20    19    20      1
    21    19    21      1
    22    19    22      1
    23    20    23      1
    24    20    24      1
    25    20    25      1
    26    25    26      1
    27    25    27      1
    28    25    28      1
    29    26    29      1
    30    26    30      1
    31    26    31      1
    32    31    32      1
    33    31    33      1
    34    31    34      1
    35    32    35      1
    36    32    36      1
    37    32    37      1
    38    37    38      1
    39    37    39      1
    40    37    40      1
    41    38    41      1
    42    38    42      1
    43    38    43      1
    44    43    44      1
    45    43    45      1
    46    43    46      1
    47    44    47      1
    48    44    48      1
    49    44    49      1
    50    49    50      1
    51    49    51      1
    52    49    52      1
    53    50    53      1
    54    50    54      1
    55    50    55      1
    56    55    56      1
    57    55    57      1
    58    55    58      1
    59    56    59      1
    60    56    60      1
    61    56    61      1
    62    61    62      1
    63    61    63      1
    64    61    64      1
    65    62    65      1
    66    62    66      1
    67    62    67      1
    68    67    68      1
    69    67    69      1
    70    67    70      1
    71    68    71      1
    72    68    72      1
    73    68    73      1
    74    73    74      1
    75    73    75      1
    76    73    76      1
    77    74    77      1
    78    74    78      1
    79    74    79      1
    80    79    80      1
    81    79    81      1
    82    79    82      1
    83    80    83      1
    84    80    84      1
    85    80    85      1
    86    85    86      1
    87    85    87      1
    88    85    88      1
    89    86    89      1
    90    86    90      1
    91    86    91      1
    92    91    92      1
    93    91    93      1
    94    91    94      1
    95    92    95      1
    96    92    96      1
    97    92    97      1
    98    97    98      1
    99    97    99      1
   100    97   100      1
   101    98   101      1
   102    98   102      1
   103    98   103      1
   104   103   104      1
   105   103   105      1
   106   103   106      1
   107   104   107      1
   108   104   108      1
   109   104   109      1
   110   109   110      1
   111   109   111      1
   112   109   112      1
   113   110   113      1
   114   110   114      1
   115   110   115      1
   116   115   116      1
   117   115   117      1
   118   115   118      1
   119   116   119      1
   120   116   120      1
   121   116   121      1
   122   121   122      1
   123   121   123      1
   124   121   124      1
   125   122   125      1
   126   122   126      1
   127   122   127      1
   128   127   128      1
   129   127   129      1
   130   127   130      1
   131   128   131      1
   132   128   132      1
   133   128   133      1
   134   133   134      1
   135   133   135      1
   136   133   136      1
   137   134   137      1
   138   134   138      1
   139   134   139      1
   140   139   140      1
   141   139   141      1
   142   139   142      1
   143   140   143      1
   144   140   144      1
   145   140   145      1
   146   145   146      1
   147   145   147      1
   148   145   148      1
   149   146   149      1
   150   146   150      1
   151   146   151      1
   152   151   152      1
   153   151   153      1
   154   151   154      1
   155   152   155      1
   156   152   156      1
   157   152   157      1
   158   157   158      1
   159   157   159      1
   160   157   160      1
   161   158   161      1
   162   158   162      1
   163   158   163      1
   164   163   164      1
   165   163   165      1
   166   163   166      1
   167   164   167      1
   168   164   168      1
   169   164   169      1
   170   169   170      1
   171   169   171      1
   172   169   172      1
   173   170   173      1
   174   170   174      1
   175   170   175      1
   176   175   176      1
   177   175   177      1
   178   175   178      1
   179   176   179      1
   180   176   180      1
   181   176   181      1
   182   181   182      1
   183   181   183      1
   184   181   184      1
   185   182   185      1
   186   182   186      1
   187   182   187      1
   188   187   188      1
   189   187   189      1
   190   187   190      1
   191   188   191      1
   192   188   192      1
   193   188   193      1
   194   193   194      1
   195   193   195      1
   196   193   196      1
   197   194   197      1
   198   194   198      1
   199   194   199      1
   200   199   200      1
   201   199   201      1
   202   199   202      1
   203   200   203      1
   204   200   204      1
   205   200   205      1
   206   205   206      1
   207   205   207      1
   208   205   208      1
   209   206   209      1
   210   206   210      1
   211   206   211      1
   212   211   212      1
   213   211   213      1
   214   211   214      1
   215   212   215      1
   216   212   216      1
   217   212   217      1
   218   217   218      1
   219   217   219      1
   220   217   220      1
   221   218   221      1
   222   218   222      1
   223   218   223      1
   224   223   224      1
   225   223   225      1
   226   223   226      1
   227   224   227      1
   228   224   228      1
   229   224   229      1
   230   229   230      1
   231   229   231      1
   232   229   232      1
   233   230   233      1
   234   230   234      1
   235   230   235      1
   236   235   236      1
   237   235   237      1
   238   235   238      1
   239   236   239      1
   240   236   240      1
   241   236   241      1
   242   241   242      1
   243   241   243      1
   244   241   244      1
   245   242   245      1
   246   242   246      1
   247   242   247      1
   248   247   248      1
   249   247   249      1
   250   247   250      1
   251   248   251      1
   252   248   252      1
   253   248   253      1
   254   253   254      1
   255   253   255      1
   256   253   256      1
   257   254   257      1
   258   254   258      1
   259   254   259      1
   260   259   260      1
   261   259   261      1
   262   259   262      1
   263   260   263      1
   264   260   264      1
   265   260   265      1
   266   265   266      1
   267   265   267      1
   268   265   268      1
   269   266   269      1
   270   266   270      1
   271   266   271      1
   272   271   272      1
   273   271   273      1
   274   271   274      1
   275   272   275      1
   276   272   276      1
   277   272   277      1
   278   277   278      1
   279   277   279      1
   280   277   280      1
   281   278   281      1
   282   278   282      1
   283   278   283      1
   284   283   284      1
   285   283   285      1
   286   283   286      1
   287   284   287      1
   288   284   288      1
   289   284   289      1
   290   289   290      1
   291   289   291      1
   292   289   292      1
   293   290   293      1
   294   290   294      1
   295   290   295      1
   296   295   296      1
   297   295   297      1
   298   295   298      1
   299   296   299      1
   300   296   300      1
   301   296   301      1
   302   301   302      1
   303   301   303      1
   304   301   304      1
   305   302   305      1
   306   302   306      1
   307   302   307      1
   308   307   308      1
   309   307   309      1
   310   307   310      1
   311   308   311      1
   312   308   312      1
   313   308   313      1
   314   313   314      1
   315   313   315      1
   316   313   316      1
   317   314   317      1
   318   314   318      1
   319   314   319      1
   320   319   320      1
   321   319   321      1
   322   319   322      1
   323   320   323      1
   324   320   324      1
   325   320   325      1
   326   325   326      1
   327   325   327      1
   328   325   328      1
   329   326   329      1
   330   326   330      1
   331   326   331      1
   332   331   332      1
   333   331   333      1
   334   331   334      1
   335   332   335      1
   336   332   336      1
   337   332   337      1
   338   337   338      1
   339   337   339      1
   340   337   340      1
   341   338   341      1
   342   338   342      1
   343   338   343      1
   344   343   344      1
   345   343   345      1
   346   343   346      1
   347   344   347      1
   348   344   348      1
   349   344   349      1
   350   349   350      1
   351   349   351      1
   352   349   352      1
   353   350   353      1
   354   350   354      1
   355   350   355      1
   356   355   356      1
   357   355   357      1
   358   355   358      1
   359   356   359      1
   360   356   360      1
   361   356   361      1
   362   361   362      1
   363   361   363      1
   364   361   364      1
   365   362   365      1
   366   362   366      1
   367   362   367      1
   368   367   368      1
   369   367   369      1
   370   367   370      1
   371   368   371      1
   372   368   372      1
   373   368   373      1
   374   373   374      1
   375   373   375      1
   376   373   376      1
   377   374   377      1
   378   374   378      1
   379   374   379      1
   380   379   380      1
   381   379   381      1
   382   379   382      1
   383   380   383      1
   384   380   384      1
   385   380   385      1
   386   385   386      1
   387   385   387      1
   388   385   388      1
   389   386   389      1
   390   386   390      1
   391   386   391      1
   392   391   392      1
   393   391   393      1
   394   391   394      1
   395   392   395      1
   396   392   396      1
   397   392   397      1
   398   397   398      1
   399   397   399      1
   400   397   400      1
   401   398   401      1
   402   398   402      1
   403   398   403      1
   404   403   404      1
   405   403   405      1
   406   403   406      1
   407   404   407      1
   408   404   408      1
   409   404   409      1
   410   409   410      1
   411   409   411      1
   412   409   412      1
   413   410   413      1
   414   410   414      1
   415   410   415      1
   416   415   416      1
   417   415   417      1
   418   415   418      1
   419   416   419      1
   420   416   420      1
   421   416   421      1
   422   421   422      1
   423   421   423      1
   424   421   424      1
   425   422   425      1
   426   422   426      1
   427   422   427      1
   428   427   428      1
   429   427   429      1
   430   427   430      1
   431   428   431      1
   432   428   432      1
   433   428   433      1
   434   433   434      1
   435   433   435      1
   436   433   436      1
   437   434   437      1
   438   434   438      1
   439   434   439      1
   440   439   440      1
   441   439   441      1
   442   439   442      1
   443   440   443      1
   444   440   444      1
   445   440   445      1
   446   445   446      1
   447   445   447      1
   448   445   448      1
   449   446   449      1
   450   446   450      1
   451   446   451      1
   452   451   452      1
   453   451   453      1
   454   451   454      1
   455   452   455      1
   456   452   456      1
   457   452   457      1
   458   457   458      1
   459   457   459      1
   460   457   460      1
   461   458   461      1
   462   458   462      1
   463   458   463      1
   464   463   464      1
   465   463   465      1
   466   463   466      1
   467   464   467      1
   468   464   468      1
   469   464   469      1
   470   469   470      1
   471   469   471      1
   472   469   472      1
   473   470   473      1
   474   470   474      1
   475   470   475      1
   476   475   476      1
   477   475   477      1
   478   475   478      1
   479   476   479      1
   480   476   480      1
   481   476   481      1
   482   481   482      1
   483   481   483      1
   484   481   484      1
   485   482   485      1
   486   482   486      1
   487   482   487      1
   488   487   488      1
   489   487   489      1
   490   487   490      1
   491   488   491      1
   492   488   492      1
   493   488   493      1
   494   493   494      1
   495   493   495      1
   496   493   496      1
   497   494   497      1
   498   494   498      1
   499   494   499      1
   500   499   500      1
   501   499   501      1
   502   499   502      1
   503   500   503      1
   504   500   504      1
   505   500   505      1
   506   505   506      1
   507   505   507      1
   508   505   508      1
   509   506   509      1
   510   506   510      1
   511   506   511      1
   512   511   512      1
   513   511   513      1
   514   511   514      1
   515   512   515      1
   516   512   516      1
   517   512   517      1
   518   517   518      1
   519   517   519      1
   520   517   520      1
   521   518   521      1
   522   518   522      1
   523   518   523      1
   524   523   524      1
   525   523   525      1
   526   523   526      1
   527   524   527      1
   528   524   528      1
   529   524   529      1
   530   529   530      1
   531   529   531      1
   532   529   532      1
   533   530   533      1
   534   530   534      1
   535   530   535      1
   536   535   536      1
   537   535   537      1
   538   535   538      1
   539   536   539      1
   540   536   540      1
   541   536   541      1
   542   541   542      1
   543   541   543      1
   544   541   544      1
   545   542   545      1
   546   542   546      1
   547   542   547      1
   548   547   548      1
   549   547   549      1
   550   547   550      1
   551   548   551      1
   552   548   552      1
   553   548   553      1
   554   553   554      1
   555   553   555      1
   556   553   556      1
   557   554   557      1
   558   554   558      1
   559   554   559      1
   560   559   560      1
   561   559   561      1
   562   559   562      1
   563   560   563      1
   564   560   564      1
   565   560   565      1
   566   565   566      1
   567   565   567      1
   568   565   568      1
   569   566   569      1
   570   566   570      1
   571   566   571      1
   572   571   572      1
   573   571   573      1
   574   571   574      1
   575   572   575      1
   576   572   576      1
   577   572   577      1
   578   577   578      1
   579   577   579      1
   580   577   580      1
   581   578   581      1
   582   578   582      1
   583   578   583      1
   584   583   584      1
   585   583   585      1
   586   583   586      1
   587   584   587      1
   588   584   588      1
   589   584   589      1
   590   589   590      1
   591   589   591      1
   592   589   592      1
   593   590   593      1
   594   590   594      1
   595   590   595      1
   596   595   596      1
   597   595   597      1
   598   595   598      1
   599   596   599      1
   600   596   600      1
   601   596   601      1
   602   601   602      1
   603   601   603      1
   604   601   604      1
   605   602   605      1
   606   602   606      1
   607   602   607      1
   608   607   608      1
   609   607   609      1
   610   607   610      1
   611   608   611      1
   612   608   612      1
   613   608   613      1
   614   613   614      1
   615   613   615      1
   616   613   616      1
   617   614   617      1
   618   614   618      1
   619   614   619      1
   620   619   620      1
   621   619   621      1
   622   619   622      1
   623   620   623      1
   624   620   624      1
   625   620   625      1
   626   625   626      1
   627   625   627      1
   628   625   628      1
   629   626   629      1
   630   626   630      1
   631   626   631      1
   632   631   632      1
   633   631   633      1
   634   631   634      1
   635   632   635      1
   636   632   636      1
   637   632   637      1
   638   637   638      1
   639   637   639      1
   640   637   640      1
   641   638   641      1
   642   638   642      1
   643   638   643      1
   644   643   644      1
   645   643   645      1
   646   643   646      1
   647   644   647      1
   648   644   648      1
   649   644   649      1
   650   649   650      1
   651   649   651      1
   652   649   652      1
   653   650   653      1
   654   650   654      1
   655   650   655      1
   656   655   656      1
   657   655   657      1
   658   655   658      1
   659   656   659      1
   660   656   660      1
   661   656   661      1
   662   661   662      1
   663   661   663      1
   664   661   664      1
   665   662   665      1
   666   662   666      1
   667   662   667      1
   668   667   668      1
   669   667   669      1
   670   667   670      1
   671   668   671      1
   672   668   672      1
   673   668   673      1
   674   673   674      1
   675   673   675      1
   676   673   676      1
   677   674   677      1
   678   674   678      1
   679   674   679      1
   680   679   680      1
   681   679   681      1
   682   679   682      1
   683   680   683      1
   684   680   684      1
   685   680   685      1
   686   685   686      1
   687   685   687      1
   688   685   688      1
   689   686   689      1
   690   686   690      1
   691   686   691      1
   692   691   692      1
   693   691   693      1
   694   691   694      1
   695   692   695      1
   696   692   696      1
   697   692   697      1
   698   697   698      1
   699   697   699      1
   700   697   700      1
   701   698   701      1
   702   698   702      1
   703   698   703      1
   704   703   704      1
   705   703   705      1
   706   703   706      1
   707   704   707      1
   708   704   708      1
   709   704   709      1
   710   709   710      1
   711   709   711      1
   712   709   712      1
   713   710   713      1
   714   710   714      1
   715   710   715      1
   716   715   716      1
   717   715   717      1
   718   715   718      1
   719   716   719      1
   720   716   720      1
   721   716   721      1
   722   721   722      1
   723   721   723      1
   724   721   724      1
   725   722   725      1
   726   722   726      1
   727   722   727      1
   728   727   728      1
   729   727   729      1
   730   727   730      1
   731   728   731      1
   732   728   732      1
   733   728   733      1
   734   733   734      1
   735   733   735      1
   736   733   736      1
   737   734   737      1
   738   734   738      1
   739   734   739      1
   740   739   740      1
   741   739   741      1
   742   739   742      1
   743   740   743      1
   744   740   744      1
   745   740   745      1
   746   745   746      1
   747   745   747      1
   748   745   748      1
   749   746   749      1
   750   746   750      1
   751   746   751      1
   752   751   752      1
   753   751   753      1
   754   751   754      1
   755   752   755      1
   756   752   756      1
   757   752   757      1
   758   757   758      1
   759   757   759      1
   760   757   760      1
   761   758   761      1
   762   758   762      1
   763   758   763      1
   764   763   764      1
   765   763   765      1
   766   763   766      1
   767   764   767      1
   768   764   768      1
   769   764   769      1
   770   769   770      1
   771   769   771      1
   772   769   772      1
   773   770   773      1
   774   770   774      1
   775   770   775      1
   776   775   776      1
   777   775   777      1
   778   775   778      1
   779   776   779      1
   780   776   780      1
   781   776   781      1
   782   781   782      1
   783   781   783      1
   784   781   784      1
   785   782   785      1
   786   782   786      1
   787   782   787      1
   788   787   788      1
   789   787   789      1
   790   787   790      1
   791   788   791      1
   792   788   792      1
   793   788   793      1
   794   793   794      1
   795   793   795      1
   796   793   796      1
   797   794   797      1
   798   794   798      1
   799   794   799      1
   800   799   800      1
   801   799   801      1
   802   799   802      1
   803   800   803      1
   804   800   804      1
   805   800   805      1
   806   805   806      1
   807   805   807      1
   808   805   808      1
   809   806   809      1
   810   806   810      1
   811   806   811      1
   812   811   812      1
   813   811   813      1
   814   811   814      1
   815   812   815      1
   816   812   816      1
   817   812   817      1
   818   817   818      1
   819   817   819      1
   820   817   820      1
   821   818   821      1
   822   818   822      1
   823   818   823      1
   824   823   824      1
   825   823   825      1
   826   823   826      1
   827   824   827      1
   828   824   828      1
   829   824   829      1
   830   829   830      1
   831   829   831      1
   832   829   832      1
   833   830   833      1
   834   830   834      1
   835   830   835      1
   836   835   836      1
   837   835   837      1
   838   835   838      1
   839   836   839      1
   840   836   840      1
   841   836   841      1
   842   841   842      1
   843   841   843      1
   844   841   844      1
   845   842   845      1
   846   842   846      1
   847   842   847      1
   848   847   848      1
   849   847   849      1
   850   847   850      1
   851   848   851      1
   852   848   852      1
   853   848   853      1
   854   853   854      1
   855   853   855      1
   856   853   856      1
   857   854   857      1
   858   854   858      1
   859   854   859      1
   860   859   860      1
   861   859   861      1
   862   859   862      1
   863   860   863      1
   864   860   864      1
   865   860   865      1
   866   865   866      1
   867   865   867      1
   868   865   868      1
   869   866   869      1
   870   866   870      1
   871   866   871      1
   872   871   872      1
   873   871   873      1
   874   871   874      1
   875   872   875      1
   876   872   876      1
   877   872   877      1
   878   877   878      1
   879   877   879      1
   880   877   880      1
   881   878   881      1
   882   878   882      1
   883   878   883      1
   884   883   884      1
   885   883   885      1
   886   883   886      1
   887   884   887      1
   888   884   888      1
   889   884   889      1
   890   889   890      1
   891   889   891      1
   892   889   892      1
   893   890   893      1
   894   890   894      1
   895   890   895      1
   896   895   896      1
   897   895   897      1
   898   895   898      1
   899   896   899      1
   900   896   900      1
   901   896   901      1
   902   901   902      1
   903   901   903      1
   904   901   904      1
   905   902   905      1
   906   902   906      1
   907   902   907      1
   908   907   908      1
   909   907   909      1
   910   907   910      1
   911   908   911      1
   912   908   912      1
   913   908   913      1
   914   913   914      1
   915   913   915      1
   916   913   916      1
   917   914   917      1
   918   914   918      1
   919   914   919      1
   920   919   920      1
   921   919   921      1
   922   919   922      1
   923   920   923      1
   924   920   924      1
   925   920   925      1
   926   925   926      1
   927   925   927      1
   928   925   928      1
   929   926   929      1
   930   926   930      1
   931   926   931      1
   932   931   932      1
   933   931   933      1
   934   931   934      1
   935   932   935      1
   936   932   936      1
   937   932   937      1
   938   937   938      1
   939   937   939      1
   940   937   940      1
   941   938   941      1
   942   938   942      1
   943   938   943      1
   944   943   944      1
   945   943   945      1
   946   943   946      1
   947   944   947      1
   948   944   948      1
   949   944   949      1
   950   949   950      1
   951   949   951      1
   952   949   952      1
   953   950   953      1
   954   950   954      1
   955   950   955      1
   956   955   956      1
   957   955   957      1
   958   955   958      1
   959   956   959      1
   960   956   960      1
   961   956   961      1
   962   961   962      1
   963   961   963      1
   964   961   964      1
   965   962   965      1
   966   962   966      1
   967   962   967      1
   968   967   968      1
   969   967   969      1
   970   967   970      1
   971   968   971      1
   972   968   972      1
   973   968   973      1
   974   973   974      1
   975   973   975      1
   976   973   976      1
   977   974   977      1
   978   974   978      1
   979   974   979      1
   980   979   980      1
   981   979   981      1
   982   979   982      1
   983   980   983      1
   984   980   984      1
   985   980   985      1
   986   985   986      1
   987   985   987      1
   988   985   988      1
   989   986   989      1
   990   986   990      1
   991   986   991      1
   992   991   992      1
   993   991   993      1
   994   991   994      1
   995   992   995      1
   996   992   996      1
   997   992   997      1
   998   997   998      1
   999   997   999      1
  1000   997  1000      1
  1001   998  1001      1
  1002   998  1002      1
  1003   998  1003      1
  1004  1003  1004      1
  1005  1003  1005      1
  1006  1003  1006      1
  1007  1004  1007      1
  1008  1004  1008      1
  1009  1004  1009      1
  1010  1009  1010      1
  1011  1009  1011      1
  1012  1009  1012      1
  1013  1010  1013      1
  1014  1010  1014      1
  1015  1010  1015      1
  1016  1015  1016      1
  1017  1015  1017      1
  1018  1015  1018      1
  1019  1016  1019      1
  1020  1016  1020      1
  1021  1016  1021      1
  1022  1021  1022      1
  1023  1021  1023      1
  1024  1021  1024      1
  1025  1022  1025      1
  1026  1022  1026      1
  1027  1022  1027      H
