###
### Created by PolyChef-cpp17 on Thu Feb 27 19:40:28 2025
###

@<TRIPOS>MOLECULE
NO_INFO
302 301 1 0 0
SMALL
USER_CHARGES


@<TRIPOS>ATOM
      1 C         149.2798   18.5487  120.6551 C.3       0        0    0.0000
      2 C         148.4513   17.3975  120.0742 C.3       0        0    0.0000
      3 H         148.8875   19.5102  120.3015 H         0        0    0.0000
      4 H         150.3162   18.4821  120.3014 H         0        0    0.0000
      5 H         148.4073   16.5672  120.7899 H         0        0    0.0000
      6 H         147.4176   17.7248  119.9074 H         0        0    0.0000
      7 C         149.0380   16.8672  118.7207 C.3       1        0    0.0000
      8 C         149.6348   17.9910  117.8663 C.3       1        0    0.0000
      9 H         149.8043   16.1130  118.9388 H         1        0    0.0000
     10 H         148.2415   16.3557  118.1662 H         1        0    0.0000
     11 H         148.9435   18.8419  117.8279 H         1        0    0.0000
     12 H         150.5620   18.3589  118.3231 H         1        0    0.0000
     13 C         149.9436   17.5242  116.4020 C.3       2        0    0.0000
     14 C         149.8888   18.6821  115.3995 C.3       2        0    0.0000
     15 H         150.9354   17.0558  116.3819 H         2        0    0.0000
     16 H         149.2225   16.7472  116.1192 H         2        0    0.0000
     17 H         148.9707   19.2643  115.5470 H         2        0    0.0000
     18 H         150.7277   19.3680  115.5707 H         2        0    0.0000
     19 C         149.9381   18.1844  113.9138 C.3       3        0    0.0000
     20 C         149.8376   19.3390  112.9108 C.3       3        0    0.0000
     21 H         150.8720   17.6304  113.7573 H         3        0    0.0000
     22 H         149.1189   17.4730  113.7518 H         3        0    0.0000
     23 H         148.9087   19.8993  113.0741 H         3        0    0.0000
     24 H         150.6628   20.0450  113.0660 H         3        0    0.0000
     25 C         149.8721   18.8400  111.4251 C.3       4        0    0.0000
     26 C         149.9192   19.9995  110.4239 C.3       4        0    0.0000
     27 H         150.7462   18.1909  111.2903 H         4        0    0.0000
     28 H         148.9870   18.2189  111.2400 H         4        0    0.0000
     29 H         149.0334   20.6356  110.5431 H         4        0    0.0000
     30 H         150.7917   20.6338  110.6236 H         4        0    0.0000
     31 C         149.9867   19.5003  108.9394 C.3       5        0    0.0000
     32 C         148.9504   20.1915  108.0464 C.3       5        0    0.0000
     33 H         150.9970   19.6798  108.5515 H         5        0    0.0000
     34 H         149.8318   18.4143  108.9242 H         5        0    0.0000
     35 H         147.9902   20.2648  108.5719 H         5        0    0.0000
     36 H         149.2684   21.2182  107.8266 H         5        0    0.0000
     37 C         148.7295   19.4304  106.6939 C.3       6        0    0.0000
     38 C         149.1150   20.2814  105.4789 C.3       6        0    0.0000
     39 H         149.3197   18.5057  106.7080 H         6        0    0.0000
     40 H         147.6764   19.1309  106.6246 H         6        0    0.0000
     41 H         148.2544   20.8756  105.1475 H         6        0    0.0000
     42 H         149.9029   20.9937  105.7533 H         6        0    0.0000
     43 C         149.6187   19.4086  104.2780 C.3       7        0    0.0000
     44 C         149.0688   19.8977  102.9336 C.3       7        0    0.0000
     45 H         150.7156   19.4254  104.2643 H         7        0    0.0000
     46 H         149.3218   18.3665  104.4492 H         7        0    0.0000
     47 H         147.9874   20.0662  103.0085 H         7        0    0.0000
     48 H         149.5205   20.8623  102.6709 H         7        0    0.0000
     49 C         149.3424   18.8790  101.7739 C.3       8        0    0.0000
     50 C         149.1865   19.5189  100.3899 C.3       8        0    0.0000
     51 H         150.3558   18.4752  101.8896 H         8        0    0.0000
     52 H         148.6523   18.0324  101.8767 H         8        0    0.0000
     53 H         148.1518   19.8533  100.2445 H         8        0    0.0000
     54 H         149.8196   20.4117  100.3148 H         8        0    0.0000
     55 C         149.5659   18.5317   99.2328 C.3       9        0    0.0000
     56 C         149.3427   19.1476   97.8472 C.3       9        0    0.0000
     57 H         150.6164   18.2377   99.3490 H         9        0    0.0000
     58 H         148.9693   17.6171   99.3384 H         9        0    0.0000
     59 H         148.2961   19.4578   97.7376 H         9        0    0.0000
     60 H         149.9529   20.0524   97.7351 H         9        0    0.0000
     61 C         149.6983   18.1517   96.6900 C.3      10        0    0.0000
     62 C         149.5754   18.8005   95.3069 C.3      10        0    0.0000
     63 H         150.7200   17.7824   96.8428 H        10        0    0.0000
     64 H         149.0352   17.2804   96.7571 H        10        0    0.0000
     65 H         148.5678   19.2133   95.1733 H        10        0    0.0000
     66 H         150.2743   19.6420   95.2227 H        10        0    0.0000
     67 C         149.8638   17.7861   94.1471 C.3      11        0    0.0000
     68 C         149.7041   18.4254   92.7633 C.3      11        0    0.0000
     69 H         150.8816   17.3940   94.2651 H        11        0    0.0000
     70 H         149.1833   16.9315   94.2474 H        11        0    0.0000
     71 H         148.6906   18.8298   92.6504 H        11        0    0.0000
     72 H         150.3945   19.2714   92.6578 H        11        0    0.0000
     73 C         149.9733   17.4059   91.6033 C.3      12        0    0.0000
     74 C         149.8090   18.0439   90.2194 C.3      12        0    0.0000
     75 H         150.9882   17.0040   91.7141 H        12        0    0.0000
     76 H         149.2854   16.5581   91.7108 H        12        0    0.0000
     77 H         148.7947   18.4472   90.1093 H        12        0    0.0000
     78 H         150.4982   18.8905   90.1113 H        12        0    0.0000
     79 C         150.0758   17.0238   89.0594 C.3      13        0    0.0000
     80 C         149.9119   17.6619   87.6756 C.3      13        0    0.0000
     81 H         151.0899   16.6201   89.1698 H        13        0    0.0000
     82 H         149.3863   16.1773   89.1674 H        13        0    0.0000
     83 H         148.9034   18.0811   87.5717 H        13        0    0.0000
     84 H         150.6136   18.4974   87.5611 H        13        0    0.0000
     85 C         150.1545   16.6357   86.5156 C.3      14        0    0.0000
     86 C         149.9863   17.2728   85.1319 C.3      14        0    0.0000
     87 H         151.1642   16.2189   86.6177 H        14        0    0.0000
     88 H         149.4550   15.7986   86.6320 H        14        0    0.0000
     89 H         149.0284   17.8046   85.0765 H        14        0    0.0000
     90 H         150.7717   18.0200   84.9638 H        14        0    0.0000
     91 C         150.0428   16.2123   83.9787 C.3      15        0    0.0000
     92 C         149.8530   16.8466   82.5965 C.3      15        0    0.0000
     93 H         151.0072   15.6914   84.0243 H        15        0    0.0000
     94 H         149.2678   15.4562   84.1554 H        15        0    0.0000
     95 H         148.7909   16.8389   82.3217 H        15        0    0.0000
     96 H         150.1648   17.8981   82.6190 H        15        0    0.0000
     97 C         150.6681   16.1015   81.4839 C.3      16        0    0.0000
     98 C         150.4823   16.7389   80.1025 C.3      16        0    0.0000
     99 H         151.7297   16.1060   81.7605 H        16        0    0.0000
    100 H         150.3535   15.0508   81.4588 H        16        0    0.0000
    101 H         149.5224   16.4290   79.6713 H        16        0    0.0000
    102 H         150.4485   17.8316   80.1939 H        16        0    0.0000
    103 C         151.6313   16.3502   79.1094 C.3      17        0    0.0000
    104 C         151.4191   16.9464   77.7135 C.3      17        0    0.0000
    105 H         152.5876   16.6931   79.5235 H        17        0    0.0000
    106 H         151.6894   15.2565   79.0465 H        17        0    0.0000
    107 H         150.4286   16.6685   77.3324 H        17        0    0.0000
    108 H         151.4407   18.0420   77.7652 H        17        0    0.0000
    109 C         152.5066   16.4672   76.6912 C.3      18        0    0.0000
    110 C         152.3109   17.0855   75.3025 C.3      18        0    0.0000
    111 H         153.4982   16.7267   77.0822 H        18        0    0.0000
    112 H         152.4709   15.3728   76.6241 H        18        0    0.0000
    113 H         151.3775   16.7205   74.8563 H        18        0    0.0000
    114 H         152.2150   18.1752   75.3861 H        18        0    0.0000
    115 C         153.4975   16.7556   74.3327 C.3      19        0    0.0000
    116 C         153.3158   17.3980   72.9530 C.3      19        0    0.0000
    117 H         154.4334   17.1018   74.7885 H        19        0    0.0000
    118 H         153.5799   15.6663   74.2326 H        19        0    0.0000
    119 H         152.4508   16.9560   72.4433 H        19        0    0.0000
    120 H         153.1041   18.4689   73.0616 H        19        0    0.0000
    121 C         154.5815   17.2227   72.0448 C.3      20        0    0.0000
    122 C         154.5962   18.2096   70.8723 C.3      20        0    0.0000
    123 H         155.4797   17.3564   72.6603 H        20        0    0.0000
    124 H         154.6073   16.1922   71.6694 H        20        0    0.0000
    125 H         153.7973   17.9621   70.1622 H        20        0    0.0000
    126 H         154.3932   19.2255   71.2331 H        20        0    0.0000
    127 C         155.9668   18.2079   70.1115 C.3      21        0    0.0000
    128 C         156.4475   19.6244   69.7775 C.3      21        0    0.0000
    129 H         156.7133   17.6932   70.7290 H        21        0    0.0000
    130 H         155.8598   17.6203   69.1913 H        21        0    0.0000
    131 H         156.0732   19.9259   68.7913 H        21        0    0.0000
    132 H         156.0397   20.3406   70.5017 H        21        0    0.0000
    133 C         158.0110   19.7375   69.7807 C.3      22        0    0.0000
    134 C         158.6029   19.6462   68.3699 C.3      22        0    0.0000
    135 H         158.2958   20.6886   70.2473 H        22        0    0.0000
    136 H         158.4218   18.9408   70.4133 H        22        0    0.0000
    137 H         157.8852   19.1692   67.6910 H        22        0    0.0000
    138 H         158.7897   20.6523   67.9745 H        22        0    0.0000
    139 C         159.9436   18.8343   68.3395 C.3      23        0    0.0000
    140 C         161.1648   19.7372   68.1331 C.3      23        0    0.0000
    141 H         160.0416   18.2781   69.2800 H        23        0    0.0000
    142 H         159.8872   18.0886   67.5369 H        23        0    0.0000
    143 H         161.4452   19.7541   67.0726 H        23        0    0.0000
    144 H         160.9203   20.7700   68.4109 H        23        0    0.0000
    145 C         162.4006   19.2666   68.9750 C.3      24        0    0.0000
    146 C         163.6846   19.2100   68.1402 C.3      24        0    0.0000
    147 H         162.5326   19.9510   69.8222 H        24        0    0.0000
    148 H         162.1838   18.2783   69.3992 H        24        0    0.0000
    149 H         163.4812   18.7433   67.1684 H        24        0    0.0000
    150 H         164.0436   20.2258   67.9328 H        24        0    0.0000
    151 C         164.8247   18.4078   68.8573 C.3      25        0    0.0000
    152 C         166.0673   19.2676   69.1134 C.3      25        0    0.0000
    153 H         164.4376   18.0142   69.8053 H        25        0    0.0000
    154 H         165.0885   17.5400   68.2401 H        25        0    0.0000
    155 H         166.8068   19.1060   68.3194 H        25        0    0.0000
    156 H         165.8012   20.3315   69.0843 H        25        0    0.0000
    157 C         166.7339   18.9513   70.4966 C.3      26        0    0.0000
    158 C         168.2032   18.5396   70.3527 C.3      26        0    0.0000
    159 H         166.6525   19.8368   71.1391 H        26        0    0.0000
    160 H         166.1657   18.1520   70.9883 H        26        0    0.0000
    161 H         168.3329   17.9142   69.4607 H        26        0    0.0000
    162 H         168.8304   19.4280   70.2085 H        26        0    0.0000
    163 C         168.7243   17.7507   71.6031 C.3      27        0    0.0000
    164 C         169.7793   18.5378   72.3882 C.3      27        0    0.0000
    165 H         167.8721   17.5134   72.2519 H        27        0    0.0000
    166 H         169.1416   16.7929   71.2682 H        27        0    0.0000
    167 H         170.7857   18.2181   72.0906 H        27        0    0.0000
    168 H         169.7052   19.6063   72.1509 H        27        0    0.0000
    169 C         169.6277   18.3525   73.9374 C.3      28        0    0.0000
    170 C         170.9819   18.3282   74.6548 C.3      28        0    0.0000
    171 H         169.0076   19.1669   74.3320 H        28        0    0.0000
    172 H         169.0830   17.4199   74.1304 H        28        0    0.0000
    173 H         171.6601   17.6258   74.1545 H        28        0    0.0000
    174 H         171.4549   19.3165   74.5991 H        28        0    0.0000
    175 C         170.8489   17.9158   76.1613 C.3      29        0    0.0000
    176 C         171.7286   18.7729   77.0780 C.3      29        0    0.0000
    177 H         169.7969   18.0032   76.4603 H        29        0    0.0000
    178 H         171.1185   16.8573   76.2634 H        29        0    0.0000
    179 H         172.7870   18.5362   76.9125 H        29        0    0.0000
    180 H         171.6017   19.8353   76.8354 H        29        0    0.0000
    181 C         171.3938   18.5574   78.5943 C.3      30        0    0.0000
    182 C         172.6548   18.4756   79.4617 C.3      30        0    0.0000
    183 H         170.7550   19.3812   78.9359 H        30        0    0.0000
    184 H         170.8049   17.6378   78.6990 H        30        0    0.0000
    185 H         173.3859   17.8007   78.9998 H        30        0    0.0000
    186 H         173.1321   19.4613   79.5252 H        30        0    0.0000
    187 C         172.3458   17.9693   80.9128 C.3      31        0    0.0000
    188 C         172.7952   18.9685   81.9845 C.3      31        0    0.0000
    189 H         171.2683   17.7830   81.0003 H        31        0    0.0000
    190 H         172.8457   17.0047   81.0646 H        31        0    0.0000
    191 H         173.8517   18.8060   82.2310 H        31        0    0.0000
    192 H         172.7152   19.9932   81.6007 H        31        0    0.0000
    193 C         171.9465   18.8531   83.2975 C.3      32        0    0.0000
    194 C         172.7959   18.4369   84.5035 C.3      32        0    0.0000
    195 H         171.4639   19.8188   83.4926 H        32        0    0.0000
    196 H         171.1414   18.1257   83.1354 H        32        0    0.0000
    197 H         173.5452   17.6961   84.1981 H        32        0    0.0000
    198 H         173.3480   19.3020   84.8912 H        32        0    0.0000
    199 C         171.9286   17.8312   85.6603 C.3      33        0    0.0000
    200 C         172.3915   18.3048   87.0425 C.3      33        0    0.0000
    201 H         170.8798   18.1097   85.4990 H        33        0    0.0000
    202 H         171.9764   16.7367   85.6022 H        33        0    0.0000
    203 H         173.3619   17.8559   87.2884 H        33        0    0.0000
    204 H         172.5396   19.3918   87.0376 H        33        0    0.0000
    205 C         171.3655   17.9397   88.1701 C.3      34        0    0.0000
    206 C         171.9386   18.1682   89.5731 C.3      34        0    0.0000
    207 H         170.4588   18.5415   88.0315 H        34        0    0.0000
    208 H         171.0684   16.8903   88.0515 H        34        0    0.0000
    209 H         172.8752   17.6095   89.6924 H        34        0    0.0000
    210 H         172.1845   19.2284   89.7109 H        34        0    0.0000
    211 C         170.9417   17.7300   90.7007 C.3      35        0    0.0000
    212 C         171.5083   17.9734   92.1038 C.3      35        0    0.0000
    213 H         170.0009   18.2801   90.5743 H        35        0    0.0000
    214 H         170.7049   16.6668   90.5698 H        35        0    0.0000
    215 H         172.4463   17.4190   92.2320 H        35        0    0.0000
    216 H         171.7501   19.0357   92.2328 H        35        0    0.0000
    217 C         170.5083   17.5423   93.2314 C.3      36        0    0.0000
    218 C         171.0760   17.7832   94.6345 C.3      36        0    0.0000
    219 H         169.5711   18.0981   93.1043 H        36        0    0.0000
    220 H         170.2650   16.4805   93.1013 H        36        0    0.0000
    221 H         172.0122   17.2257   94.7623 H        36        0    0.0000
    222 H         171.3213   18.8447   94.7639 H        36        0    0.0000
    223 C         170.0748   17.3549   95.7621 C.3      37        0    0.0000
    224 C         170.6421   17.5970   97.1652 C.3      37        0    0.0000
    225 H         169.1384   17.9117   95.6337 H        37        0    0.0000
    226 H         169.8303   16.2932   95.6333 H        37        0    0.0000
    227 H         171.5800   17.0424   97.2926 H        37        0    0.0000
    228 H         170.8840   18.6591   97.2950 H        37        0    0.0000
    229 C         169.6424   17.1649   98.2929 C.3      38        0    0.0000
    230 C         170.2087   17.4092   99.6959 C.3      38        0    0.0000
    231 H         168.7039   17.7183   98.1644 H        38        0    0.0000
    232 H         169.4018   16.1024   98.1640 H        38        0    0.0000
    233 H         171.1453   16.8527   99.8257 H        38        0    0.0000
    234 H         170.4530   18.4711   99.8234 H        38        0    0.0000
    235 C         169.2069   16.9822  100.8236 C.3      39        0    0.0000
    236 C         169.7744   17.2239  102.2267 C.3      39        0    0.0000
    237 H         168.2711   17.5401  100.6950 H        39        0    0.0000
    238 H         168.9611   15.9208  100.6949 H        39        0    0.0000
    239 H         170.7119   16.6687  102.3540 H        39        0    0.0000
    240 H         170.0169   18.2859  102.3565 H        39        0    0.0000
    241 C         168.7745   16.7925  103.3543 C.3      40        0    0.0000
    242 C         169.3407   17.0369  104.7574 C.3      40        0    0.0000
    243 H         167.8361   17.3460  103.2257 H        40        0    0.0000
    244 H         168.5336   15.7299  103.2257 H        40        0    0.0000
    245 H         170.2869   16.4955  104.8808 H        40        0    0.0000
    246 H         169.5674   18.1019  104.8913 H        40        0    0.0000
    247 C         168.3496   16.5855  105.8850 C.3      41        0    0.0000
    248 C         168.9139   16.8343  107.2881 C.3      41        0    0.0000
    249 H         167.4022   17.1243  105.7595 H        41        0    0.0000
    250 H         168.1257   15.5197  105.7531 H        41        0    0.0000
    251 H         168.9133   17.9090  107.5087 H        41        0    0.0000
    252 H         168.2737   16.3579  108.0409 H        41        0    0.0000
    253 C         170.3741   16.2867  107.4469 C.3      42        0    0.0000
    254 C         170.9672   16.6047  108.8240 C.3      42        0    0.0000
    255 H         170.3648   15.2020  107.2828 H        42        0    0.0000
    256 H         171.0018   16.7193  106.6580 H        42        0    0.0000
    257 H         171.3396   15.6862  109.2943 H        42        0    0.0000
    258 H         171.8287   17.2754  108.7167 H        42        0    0.0000
    259 C         169.9215   17.2743  109.7809 C.3      43        0    0.0000
    260 C         170.3455   17.1944  111.2516 C.3      43        0    0.0000
    261 H         169.7903   18.3221  109.4836 H        43        0    0.0000
    262 H         168.9502   16.7835  109.6422 H        43        0    0.0000
    263 H         170.7247   16.1905  111.4798 H        43        0    0.0000
    264 H         171.1688   17.8934  111.4443 H        43        0    0.0000
    265 C         169.1646   17.5227  112.2290 C.3      44        0    0.0000
    266 C         169.5851   17.4296  113.6999 C.3      44        0    0.0000
    267 H         168.7920   18.5305  112.0074 H        44        0    0.0000
    268 H         168.3376   16.8301  112.0296 H        44        0    0.0000
    269 H         170.1057   16.4814  113.8830 H        44        0    0.0000
    270 H         170.2956   18.2305  113.9395 H        44        0    0.0000
    271 C         168.3619   17.5309  114.6750 C.3      45        0    0.0000
    272 C         168.7838   17.4509  116.1463 C.3      45        0    0.0000
    273 H         167.8356   18.4746  114.4853 H        45        0    0.0000
    274 H         167.6560   16.7241  114.4418 H        45        0    0.0000
    275 H         168.4816   18.3638  116.6744 H        45        0    0.0000
    276 H         168.2702   16.6167  116.6401 H        45        0    0.0000
    277 C         170.3310   17.2604  116.3112 C.3      46        0    0.0000
    278 C         170.7574   17.2171  117.7827 C.3      46        0    0.0000
    279 H         170.6290   16.3335  115.8057 H        46        0    0.0000
    280 H         170.8453   18.0803  115.7945 H        46        0    0.0000
    281 H         171.3050   16.2890  117.9884 H        46        0    0.0000
    282 H         171.4455   18.0435  117.9994 H        46        0    0.0000
    283 C         169.5341   17.3089  118.7586 C.3      47        0    0.0000
    284 C         169.9652   17.3389  120.2291 C.3      47        0    0.0000
    285 H         168.9563   18.2098  118.5176 H        47        0    0.0000
    286 H         168.8725   16.4526  118.5780 H        47        0    0.0000
    287 H         170.3647   18.3284  120.4839 H        47        0    0.0000
    288 H         169.0971   17.1728  120.8790 H        47        0    0.0000
    289 C         171.0524   16.2567  120.5517 C.3      48        0    0.0000
    290 C         171.7926   16.5493  121.8615 C.3      48        0    0.0000
    291 H         170.5681   15.2737  120.6049 H        48        0    0.0000
    292 H         171.7650   16.2121  119.7188 H        48        0    0.0000
    293 H         172.0373   15.6102  122.3732 H        48        0    0.0000
    294 H         172.7453   17.0510  121.6511 H        48        0    0.0000
    295 C         170.9512   17.4488  122.8312 C.3      49        0    0.0000
    296 C         171.6893   17.7370  124.1432 C.3      49        0    0.0000
    297 H         170.7098   18.3894  122.3209 H        49        0    0.0000
    298 H         169.9969   16.9489  123.0385 H        49        0    0.0000
    299 H         171.9307   16.7963  124.6535 H        49        0    0.0000
    300 H         172.6436   18.2369  123.9359 H        49        0    0.0000
    301 H         171.1043   18.3624  124.8175 H        49        0    0.0000
    302 H         149.2798   18.5487  121.7450 H         0        0    0.0000
@<TRIPOS>BOND
     1     1     2      1
     2     1     3      1
     3     1     4      1
     4     1   302      H
     5     2     5      1
     6     2     6      1
     7     2     7      1
     8     7     8      1
     9     7     9      1
    10     7    10      1
    11     8    11      1
    12     8    12      1
    13     8    13      1
    14    13    14      1
    15    13    15      1
    16    13    16      1
    17    14    17      1
    18    14    18      1
    19    14    19      1
    20    19    20      1
    21    19    21      1
    22    19    22      1
    23    20    23      1
    24    20    24      1
    25    20    25      1
    26    25    26      1
    27    25    27      1
    28    25    28      1
    29    26    29      1
    30    26    30      1
    31    26    31      1
    32    31    32      1
    33    31    33      1
    34    31    34      1
    35    32    35      1
    36    32    36      1
    37    32    37      1
    38    37    38      1
    39    37    39      1
    40    37    40      1
    41    38    41      1
    42    38    42      1
    43    38    43      1
    44    43    44      1
    45    43    45      1
    46    43    46      1
    47    44    47      1
    48    44    48      1
    49    44    49      1
    50    49    50      1
    51    49    51      1
    52    49    52      1
    53    50    53      1
    54    50    54      1
    55    50    55      1
    56    55    56      1
    57    55    57      1
    58    55    58      1
    59    56    59      1
    60    56    60      1
    61    56    61      1
    62    61    62      1
    63    61    63      1
    64    61    64      1
    65    62    65      1
    66    62    66      1
    67    62    67      1
    68    67    68      1
    69    67    69      1
    70    67    70      1
    71    68    71      1
    72    68    72      1
    73    68    73      1
    74    73    74      1
    75    73    75      1
    76    73    76      1
    77    74    77      1
    78    74    78      1
    79    74    79      1
    80    79    80      1
    81    79    81      1
    82    79    82      1
    83    80    83      1
    84    80    84      1
    85    80    85      1
    86    85    86      1
    87    85    87      1
    88    85    88      1
    89    86    89      1
    90    86    90      1
    91    86    91      1
    92    91    92      1
    93    91    93      1
    94    91    94      1
    95    92    95      1
    96    92    96      1
    97    92    97      1
    98    97    98      1
    99    97    99      1
   100    97   100      1
   101    98   101      1
   102    98   102      1
   103    98   103      1
   104   103   104      1
   105   103   105      1
   106   103   106      1
   107   104   107      1
   108   104   108      1
   109   104   109      1
   110   109   110      1
   111   109   111      1
   112   109   112      1
   113   110   113      1
   114   110   114      1
   115   110   115      1
   116   115   116      1
   117   115   117      1
   118   115   118      1
   119   116   119      1
   120   116   120      1
   121   116   121      1
   122   121   122      1
   123   121   123      1
   124   121   124      1
   125   122   125      1
   126   122   126      1
   127   122   127      1
   128   127   128      1
   129   127   129      1
   130   127   130      1
   131   128   131      1
   132   128   132      1
   133   128   133      1
   134   133   134      1
   135   133   135      1
   136   133   136      1
   137   134   137      1
   138   134   138      1
   139   134   139      1
   140   139   140      1
   141   139   141      1
   142   139   142      1
   143   140   143      1
   144   140   144      1
   145   140   145      1
   146   145   146      1
   147   145   147      1
   148   145   148      1
   149   146   149      1
   150   146   150      1
   151   146   151      1
   152   151   152      1
   153   151   153      1
   154   151   154      1
   155   152   155      1
   156   152   156      1
   157   152   157      1
   158   157   158      1
   159   157   159      1
   160   157   160      1
   161   158   161      1
   162   158   162      1
   163   158   163      1
   164   163   164      1
   165   163   165      1
   166   163   166      1
   167   164   167      1
   168   164   168      1
   169   164   169      1
   170   169   170      1
   171   169   171      1
   172   169   172      1
   173   170   173      1
   174   170   174      1
   175   170   175      1
   176   175   176      1
   177   175   177      1
   178   175   178      1
   179   176   179      1
   180   176   180      1
   181   176   181      1
   182   181   182      1
   183   181   183      1
   184   181   184      1
   185   182   185      1
   186   182   186      1
   187   182   187      1
   188   187   188      1
   189   187   189      1
   190   187   190      1
   191   188   191      1
   192   188   192      1
   193   188   193      1
   194   193   194      1
   195   193   195      1
   196   193   196      1
   197   194   197      1
   198   194   198      1
   199   194   199      1
   200   199   200      1
   201   199   201      1
   202   199   202      1
   203   200   203      1
   204   200   204      1
   205   200   205      1
   206   205   206      1
   207   205   207      1
   208   205   208      1
   209   206   209      1
   210   206   210      1
   211   206   211      1
   212   211   212      1
   213   211   213      1
   214   211   214      1
   215   212   215      1
   216   212   216      1
   217   212   217      1
   218   217   218      1
   219   217   219      1
   220   217   220      1
   221   218   221      1
   222   218   222      1
   223   218   223      1
   224   223   224      1
   225   223   225      1
   226   223   226      1
   227   224   227      1
   228   224   228      1
   229   224   229      1
   230   229   230      1
   231   229   231      1
   232   229   232      1
   233   230   233      1
   234   230   234      1
   235   230   235      1
   236   235   236      1
   237   235   237      1
   238   235   238      1
   239   236   239      1
   240   236   240      1
   241   236   241      1
   242   241   242      1
   243   241   243      1
   244   241   244      1
   245   242   245      1
   246   242   246      1
   247   242   247      1
   248   247   248      1
   249   247   249      1
   250   247   250      1
   251   248   251      1
   252   248   252      1
   253   248   253      1
   254   253   254      1
   255   253   255      1
   256   253   256      1
   257   254   257      1
   258   254   258      1
   259   254   259      1
   260   259   260      1
   261   259   261      1
   262   259   262      1
   263   260   263      1
   264   260   264      1
   265   260   265      1
   266   265   266      1
   267   265   267      1
   268   265   268      1
   269   266   269      1
   270   266   270      1
   271   266   271      1
   272   271   272      1
   273   271   273      1
   274   271   274      1
   275   272   275      1
   276   272   276      1
   277   272   277      1
   278   277   278      1
   279   277   279      1
   280   277   280      1
   281   278   281      1
   282   278   282      1
   283   278   283      1
   284   283   284      1
   285   283   285      1
   286   283   286      1
   287   284   287      1
   288   284   288      1
   289   284   289      1
   290   289   290      1
   291   289   291      1
   292   289   292      1
   293   290   293      1
   294   290   294      1
   295   290   295      1
   296   295   296      1
   297   295   297      1
   298   295   298      1
   299   296   299      1
   300   296   300      1
   301   296   301      H
