###
### Created by PolyChef-cpp17 on Thu Feb 27 19:40:28 2025
###

@<TRIPOS>MOLECULE
NO_INFO
290 289 1 0 0
SMALL
USER_CHARGES


@<TRIPOS>ATOM
      1 C         109.2798   87.8287  -39.3449 C.3       0        0    0.0000
      2 C         107.8706   87.6682  -38.7641 C.3       0        0    0.0000
      3 H         109.9271   87.0166  -38.9913 H         0        0    0.0000
      4 H         109.7280   88.7655  -38.9913 H         0        0    0.0000
      5 H         107.3721   88.6440  -38.7114 H         0        0    0.0000
      6 H         107.2612   87.0384  -39.4240 H         0        0    0.0000
      7 C         107.8873   87.0313  -37.3318 C.3       1        0    0.0000
      8 C         109.1653   87.3745  -36.5584 C.3       1        0    0.0000
      9 H         107.0072   87.3819  -36.7786 H         1        0    0.0000
     10 H         107.7863   85.9431  -37.4275 H         1        0    0.0000
     11 H         110.0454   87.1977  -37.1889 H         1        0    0.0000
     12 H         109.1729   88.4403  -36.2985 H         1        0    0.0000
     13 C         109.3082   86.5327  -35.2437 C.3       2        0    0.0000
     14 C         110.2066   87.2195  -34.2091 C.3       2        0    0.0000
     15 H         108.3097   86.3637  -34.8217 H         2        0    0.0000
     16 H         109.7139   85.5457  -35.4981 H         2        0    0.0000
     17 H         111.2610   87.0969  -34.4861 H         2        0    0.0000
     18 H         110.0079   88.2983  -34.1953 H         2        0    0.0000
     19 C         109.9938   86.6480  -32.7649 C.3       3        0    0.0000
     20 C         110.6216   87.5406  -31.6887 C.3       3        0    0.0000
     21 H         108.9175   86.5394  -32.5826 H         3        0    0.0000
     22 H         110.4248   85.6404  -32.7163 H         3        0    0.0000
     23 H         111.7107   87.5742  -31.8162 H         3        0    0.0000
     24 H         110.2600   88.5708  -31.7964 H         3        0    0.0000
     25 C         110.2977   87.0405  -30.2388 C.3       4        0    0.0000
     26 C         110.8987   87.9510  -29.1624 C.3       4        0    0.0000
     27 H         109.2086   86.9846  -30.1190 H         4        0    0.0000
     28 H         110.6801   86.0187  -30.1235 H         4        0    0.0000
     29 H         111.9885   88.0017  -29.2782 H         4        0    0.0000
     30 H         110.5213   88.9742  -29.2816 H         4        0    0.0000
     31 C         110.5671   87.4559  -27.7124 C.3       5        0    0.0000
     32 C         111.1755   88.3615  -26.6360 C.3       5        0    0.0000
     33 H         109.4773   87.4113  -27.5946 H         5        0    0.0000
     34 H         110.9388   86.4304  -27.5953 H         5        0    0.0000
     35 H         112.2651   88.4081  -26.7555 H         5        0    0.0000
     36 H         110.8018   89.3865  -26.7515 H         5        0    0.0000
     37 C         110.8470   87.8644  -25.1861 C.3       6        0    0.0000
     38 C         111.4291   88.7872  -24.1097 C.3       6        0    0.0000
     39 H         109.7578   87.7959  -25.0740 H         6        0    0.0000
     40 H         111.2408   86.8478  -25.0631 H         6        0    0.0000
     41 H         112.5187   88.8527  -24.2195 H         6        0    0.0000
     42 H         111.0381   89.8046  -24.2349 H         6        0    0.0000
     43 C         111.0961   88.2929  -22.6598 C.3       7        0    0.0000
     44 C         112.1900   88.6663  -21.6533 C.3       7        0    0.0000
     45 H         110.1366   88.7254  -22.3504 H         7        0    0.0000
     46 H         110.9592   87.2046  -22.6800 H         7        0    0.0000
     47 H         113.1691   88.3365  -22.0222 H         7        0    0.0000
     48 H         112.2451   89.7566  -21.5449 H         7        0    0.0000
     49 C         111.9412   88.0302  -20.2423 C.3       8        0    0.0000
     50 C         111.9633   89.0757  -19.1218 C.3       8        0    0.0000
     51 H         110.9746   87.5115  -20.2537 H         8        0    0.0000
     52 H         112.7066   87.2660  -20.0589 H         8        0    0.0000
     53 H         112.9990   89.3056  -18.8422 H         8        0    0.0000
     54 H         111.5164   90.0138  -19.4737 H         8        0    0.0000
     55 C         111.1902   88.5952  -17.8455 C.3       9        0    0.0000
     56 C         112.0609   88.6466  -16.5852 C.3       9        0    0.0000
     57 H         110.3004   89.2232  -17.7138 H         9        0    0.0000
     58 H         110.8317   87.5721  -18.0135 H         9        0    0.0000
     59 H         113.0691   88.2765  -16.8092 H         9        0    0.0000
     60 H         112.1740   89.6845  -16.2482 H         9        0    0.0000
     61 C         111.4598   87.7973  -15.4127 C.3      10        0    0.0000
     62 C         111.7772   88.3975  -14.0387 C.3      10        0    0.0000
     63 H         110.3737   87.7245  -15.5496 H        10        0    0.0000
     64 H         111.8547   86.7759  -15.4774 H        10        0    0.0000
     65 H         112.8542   88.3335  -13.8400 H        10        0    0.0000
     66 H         111.5171   89.4632  -14.0244 H        10        0    0.0000
     67 C         111.0060   87.6736  -12.8816 C.3      11        0    0.0000
     68 C         111.4683   88.1379  -11.4961 C.3      11        0    0.0000
     69 H         109.9317   87.8602  -13.0019 H        11        0    0.0000
     70 H         111.1510   86.5909  -12.9833 H        11        0    0.0000
     71 H         112.5504   87.9909  -11.3917 H        11        0    0.0000
     72 H         111.2836   89.2129  -11.3786 H        11        0    0.0000
     73 C         110.7402   87.3708  -10.3389 C.3      12        0    0.0000
     74 C         111.1917   87.8454   -8.9533 C.3      12        0    0.0000
     75 H         109.6575   87.5089  -10.4496 H        12        0    0.0000
     76 H         110.9338   86.2967  -10.4502 H        12        0    0.0000
     77 H         112.2739   87.7045   -8.8416 H        12        0    0.0000
     78 H         111.0009   88.9201   -8.8432 H        12        0    0.0000
     79 C         110.4605   87.0813   -7.7962 C.3      13        0    0.0000
     80 C         110.9227   87.5456   -6.4106 C.3      13        0    0.0000
     81 H         109.3789   87.2311   -7.9017 H        13        0    0.0000
     82 H         110.6424   86.0057   -7.9125 H        13        0    0.0000
     83 H         112.0058   87.4041   -6.3084 H        13        0    0.0000
     84 H         110.7325   88.6194   -6.2909 H        13        0    0.0000
     85 C         110.2008   86.7725   -5.2536 C.3      14        0    0.0000
     86 C         110.7007   87.1998   -3.8692 C.3      14        0    0.0000
     87 H         109.1203   86.9453   -5.3332 H        14        0    0.0000
     88 H         110.3589   85.6962   -5.3950 H        14        0    0.0000
     89 H         111.7871   87.0622   -3.8026 H        14        0    0.0000
     90 H         110.5083   88.2685   -3.7131 H        14        0    0.0000
     91 C         110.0170   86.3894   -2.7145 C.3      15        0    0.0000
     92 C         110.4742   86.8558   -1.3280 C.3      15        0    0.0000
     93 H         108.9287   86.4928   -2.8062 H        15        0    0.0000
     94 H         110.2446   85.3244   -2.8471 H        15        0    0.0000
     95 H         111.5027   86.5238   -1.1396 H        15        0    0.0000
     96 H         110.4840   87.9519   -1.2840 H        15        0    0.0000
     97 C         109.5504   86.3125   -0.1839 C.3      16        0    0.0000
     98 C         109.9144   86.8992    1.1845 C.3      16        0    0.0000
     99 H         108.5076   86.5489   -0.4292 H        16        0    0.0000
    100 H         109.6274   85.2185   -0.1567 H        16        0    0.0000
    101 H         110.9226   86.5788    1.4750 H        16        0    0.0000
    102 H         109.9352   87.9947    1.1306 H        16        0    0.0000
    103 C         108.9050   86.4674    2.3035 C.3      17        0    0.0000
    104 C         109.2231   87.1169    3.6548 C.3      17        0    0.0000
    105 H         107.8896   86.7362    1.9867 H        17        0    0.0000
    106 H         108.9269   85.3745    2.3970 H        17        0    0.0000
    107 H         110.2247   86.8191    3.9888 H        17        0    0.0000
    108 H         109.2367   88.2092    3.5532 H        17        0    0.0000
    109 C         108.1842   86.7253    4.7615 C.3      18        0    0.0000
    110 C         108.3796   87.5286    6.0520 C.3      18        0    0.0000
    111 H         107.1723   86.8847    4.3688 H        18        0    0.0000
    112 H         108.2762   85.6520    4.9689 H        18        0    0.0000
    113 H         109.3653   87.3139    6.4832 H        18        0    0.0000
    114 H         108.3591   88.6034    5.8329 H        18        0    0.0000
    115 C         107.2796   87.2101    7.1225 C.3      19        0    0.0000
    116 C         106.8953   88.4446    7.9456 C.3      19        0    0.0000
    117 H         106.3955   86.8082    6.6122 H        19        0    0.0000
    118 H         107.6492   86.4170    7.7841 H        19        0    0.0000
    119 H         107.7096   88.7072    8.6322 H        19        0    0.0000
    120 H         106.7504   89.3076    7.2840 H        19        0    0.0000
    121 C         105.5856   88.2200    8.7773 C.3      20        0    0.0000
    122 C         104.6553   89.4373    8.7358 C.3      20        0    0.0000
    123 H         105.0661   87.3361    8.3870 H        20        0    0.0000
    124 H         105.8603   87.9916    9.8146 H        20        0    0.0000
    125 H         104.9664   90.1742    9.4866 H        20        0    0.0000
    126 H         104.7272   89.9326    7.7596 H        20        0    0.0000
    127 C         103.1588   89.0505    8.9973 C.3      21        0    0.0000
    128 C         102.6325   89.6248   10.3172 C.3      21        0    0.0000
    129 H         102.5488   89.4117    8.1601 H        21        0    0.0000
    130 H         103.0718   87.9569    9.0016 H        21        0    0.0000
    131 H         103.4502   89.7080   11.0438 H        21        0    0.0000
    132 H         102.2473   90.6397   10.1588 H        21        0    0.0000
    133 C         101.4939   88.7432   10.9366 C.3      22        0    0.0000
    134 C         100.0980   89.2933   10.6238 C.3      22        0    0.0000
    135 H         101.5899   87.7202   10.5521 H        22        0    0.0000
    136 H         101.6413   88.6868   12.0223 H        22        0    0.0000
    137 H          99.7339   89.8959   11.4651 H        22        0    0.0000
    138 H         100.1429   89.9609    9.7544 H        22        0    0.0000
    139 C          99.0617   88.1536   10.3327 C.3      23        0    0.0000
    140 C          97.8254   88.6690    9.5878 C.3      23        0    0.0000
    141 H          99.5547   87.3690    9.7455 H        23        0    0.0000
    142 H          98.7639   87.6952   11.2838 H        23        0    0.0000
    143 H          97.3168   89.4342   10.1873 H        23        0    0.0000
    144 H          98.1257   89.1520    8.6496 H        23        0    0.0000
    145 C          96.8070   87.5226    9.2624 C.3      24        0    0.0000
    146 C          95.5838   88.0333    8.4929 C.3      24        0    0.0000
    147 H          97.3210   86.7477    8.6803 H        24        0    0.0000
    148 H          96.4911   87.0530   10.2022 H        24        0    0.0000
    149 H          95.0424   88.7731    9.0954 H        24        0    0.0000
    150 H          95.9027   88.5456    7.5768 H        24        0    0.0000
    151 C          94.5985   86.8764    8.1080 C.3      25        0    0.0000
    152 C          93.6133   87.2935    7.0106 C.3      25        0    0.0000
    153 H          95.1834   86.0087    7.7784 H        25        0    0.0000
    154 H          94.0512   86.5645    9.0062 H        25        0    0.0000
    155 H          92.7987   87.8881    7.4426 H        25        0    0.0000
    156 H          94.1169   87.9352    6.2770 H        25        0    0.0000
    157 C          92.9977   86.0599    6.2645 C.3      26        0    0.0000
    158 C          92.1436   86.4754    5.0617 C.3      26        0    0.0000
    159 H          93.8123   85.4016    5.9380 H        26        0    0.0000
    160 H          92.3921   85.4832    6.9747 H        26        0    0.0000
    161 H          91.0842   86.5050    5.3449 H        26        0    0.0000
    162 H          92.4127   87.4897    4.7417 H        26        0    0.0000
    163 C          92.3147   85.5001    3.8463 C.3      27        0    0.0000
    164 C          91.4877   85.9353    2.6315 C.3      27        0    0.0000
    165 H          93.3776   85.4506    3.5795 H        27        0    0.0000
    166 H          92.0210   84.4904    4.1591 H        27        0    0.0000
    167 H          90.4784   85.5094    2.6914 H        27        0    0.0000
    168 H          91.3697   87.0260    2.6280 H        27        0    0.0000
    169 C          92.1429   85.4936    1.2776 C.3      28        0    0.0000
    170 C          91.2976   85.8968    0.0644 C.3      28        0    0.0000
    171 H          93.1419   85.9412    1.2056 H        28        0    0.0000
    172 H          92.2854   84.4059    1.2921 H        28        0    0.0000
    173 H          91.3310   86.9848   -0.0724 H        28        0    0.0000
    174 H          91.7130   85.4516   -0.8482 H        28        0    0.0000
    175 C          89.8015   85.4512    0.2082 C.3      29        0    0.0000
    176 C          88.9524   85.8700   -0.9971 C.3      29        0    0.0000
    177 H          89.7674   84.3617    0.3320 H        29        0    0.0000
    178 H          89.3899   85.8859    1.1275 H        29        0    0.0000
    179 H          87.9671   85.3901   -0.9480 H        29        0    0.0000
    180 H          88.7769   86.9527   -0.9756 H        29        0    0.0000
    181 C          89.6298   85.4949   -2.3602 C.3      30        0    0.0000
    182 C          89.1350   86.3721   -3.5155 C.3      30        0    0.0000
    183 H          90.7173   85.5920   -2.2531 H        30        0    0.0000
    184 H          89.4276   84.4386   -2.5766 H        30        0    0.0000
    185 H          88.1427   86.0382   -3.8431 H        30        0    0.0000
    186 H          89.0227   87.4100   -3.1783 H        30        0    0.0000
    187 C          90.1091   86.3423   -4.7434 C.3      31        0    0.0000
    188 C          89.4211   86.7797   -6.0413 C.3      31        0    0.0000
    189 H          90.9643   86.9961   -4.5322 H        31        0    0.0000
    190 H          90.5086   85.3265   -4.8532 H        31        0    0.0000
    191 H          88.4409   86.2950   -6.1292 H        31        0    0.0000
    192 H          89.2374   87.8611   -6.0237 H        31        0    0.0000
    193 C          90.2723   86.4323   -7.3111 C.3      32        0    0.0000
    194 C          89.5527   86.8042   -8.6122 C.3      32        0    0.0000
    195 H          91.2324   86.9593   -7.2482 H        32        0    0.0000
    196 H          90.5006   85.3593   -7.3010 H        32        0    0.0000
    197 H          88.5750   86.3086   -8.6563 H        32        0    0.0000
    198 H          89.3602   87.8839   -8.6402 H        32        0    0.0000
    199 C          90.3792   86.4052   -9.8831 C.3      33        0    0.0000
    200 C          89.6554   86.7685  -11.1843 C.3      33        0    0.0000
    201 H          91.3543   86.9064   -9.8425 H        33        0    0.0000
    202 H          90.5778   85.3267   -9.8516 H        33        0    0.0000
    203 H          88.6773   86.2731  -11.2216 H        33        0    0.0000
    204 H          89.4634   87.8480  -11.2192 H        33        0    0.0000
    205 C          90.4773   86.3602  -12.4553 C.3      34        0    0.0000
    206 C          89.7534   86.7233  -13.7565 C.3      34        0    0.0000
    207 H          91.4554   86.8557  -12.4181 H        34        0    0.0000
    208 H          90.6695   85.2806  -12.4203 H        34        0    0.0000
    209 H          88.7749   86.2286  -13.7932 H        34        0    0.0000
    210 H          89.5621   87.8029  -13.7919 H        34        0    0.0000
    211 C          90.5746   86.3137  -15.0274 C.3      35        0    0.0000
    212 C          89.8499   86.6751  -16.3286 C.3      35        0    0.0000
    213 H          91.5527   86.8094  -14.9914 H        35        0    0.0000
    214 H          90.7671   85.2342  -14.9913 H        35        0    0.0000
    215 H          88.8707   86.1817  -16.3634 H        35        0    0.0000
    216 H          89.6600   87.7550  -16.3660 H        35        0    0.0000
    217 C          90.6694   86.2619  -17.5996 C.3      36        0    0.0000
    218 C          89.9461   86.6263  -18.9008 C.3      36        0    0.0000
    219 H          91.6495   86.7535  -17.5636 H        36        0    0.0000
    220 H          90.8572   85.1817  -17.5634 H        36        0    0.0000
    221 H          88.9654   86.1359  -18.9361 H        36        0    0.0000
    222 H          89.7596   87.7068  -18.9376 H        36        0    0.0000
    223 C          90.7646   86.2112  -20.1717 C.3      37        0    0.0000
    224 C          90.0427   86.5783  -21.4729 C.3      37        0    0.0000
    225 H          91.7461   86.6999  -20.1353 H        37        0    0.0000
    226 H          90.9492   85.1304  -20.1360 H        37        0    0.0000
    227 H          89.0601   86.0917  -21.5082 H        37        0    0.0000
    228 H          89.8603   87.6594  -21.5099 H        37        0    0.0000
    229 C          90.8596   86.1600  -22.7439 C.3      38        0    0.0000
    230 C          90.1385   86.5285  -24.0451 C.3      38        0    0.0000
    231 H          91.8426   86.6456  -22.7081 H        38        0    0.0000
    232 H          91.0409   85.0786  -22.7076 H        38        0    0.0000
    233 H          89.1563   86.0410  -24.0819 H        38        0    0.0000
    234 H          89.9551   87.6096  -24.0804 H        38        0    0.0000
    235 C          90.9568   86.1131  -25.3160 C.3      39        0    0.0000
    236 C          90.2351   86.4806  -26.6173 C.3      39        0    0.0000
    237 H          91.9385   86.6013  -25.2796 H        39        0    0.0000
    238 H          91.1409   85.0322  -25.2803 H        39        0    0.0000
    239 H          89.2518   85.9953  -26.6520 H        39        0    0.0000
    240 H          90.0542   87.5620  -26.6546 H        39        0    0.0000
    241 C          91.0510   86.0605  -27.8882 C.3      40        0    0.0000
    242 C          90.3303   86.4297  -29.1894 C.3      40        0    0.0000
    243 H          92.0349   86.5446  -27.8527 H        40        0    0.0000
    244 H          91.2306   84.9789  -27.8515 H        40        0    0.0000
    245 H          89.3478   85.9431  -29.2264 H        40        0    0.0000
    246 H          90.1478   87.5109  -29.2246 H        40        0    0.0000
    247 C          91.1483   86.0138  -30.4603 C.3      41        0    0.0000
    248 C          90.4268   86.3814  -31.7616 C.3      41        0    0.0000
    249 H          92.1303   86.5015  -30.4240 H        41        0    0.0000
    250 H          91.3319   84.9328  -30.4245 H        41        0    0.0000
    251 H          89.4466   85.8901  -31.8000 H        41        0    0.0000
    252 H          90.2390   87.4618  -31.7953 H        41        0    0.0000
    253 C          91.2477   85.9713  -33.0325 C.3      42        0    0.0000
    254 C          90.5250   86.3366  -34.3337 C.3      42        0    0.0000
    255 H          92.2271   86.4642  -32.9950 H        42        0    0.0000
    256 H          91.4371   84.8913  -32.9978 H        42        0    0.0000
    257 H          89.5419   85.8509  -34.3671 H        42        0    0.0000
    258 H          90.3436   87.4179  -34.3725 H        42        0    0.0000
    259 C          91.3402   85.9151  -35.6046 C.3      43        0    0.0000
    260 C          90.6185   86.2826  -36.9059 C.3      43        0    0.0000
    261 H          92.3240   86.3995  -35.5704 H        43        0    0.0000
    262 H          91.5201   84.8336  -35.5667 H        43        0    0.0000
    263 H          89.6411   85.7861  -36.9471 H        43        0    0.0000
    264 H          90.4252   87.3620  -36.9369 H        43        0    0.0000
    265 C          91.4435   85.8803  -38.1767 C.3      44        0    0.0000
    266 C          90.7210   86.2460  -39.4780 C.3      44        0    0.0000
    267 H          92.4204   86.3780  -38.1363 H        44        0    0.0000
    268 H          91.6382   84.8012  -38.1450 H        44        0    0.0000
    269 H          90.7364   87.3331  -39.6242 H        44        0    0.0000
    270 H          91.2444   85.8053  -40.3355 H        44        0    0.0000
    271 C          89.2319   85.7558  -39.4886 C.3      45        0    0.0000
    272 C          88.4218   86.3841  -40.6279 C.3      45        0    0.0000
    273 H          89.2202   84.6624  -39.5772 H        45        0    0.0000
    274 H          88.7729   85.9985  -38.5222 H        45        0    0.0000
    275 H          87.7468   85.6381  -41.0653 H        45        0    0.0000
    276 H          87.7891   87.1915  -40.2388 H        45        0    0.0000
    277 C          89.3386   86.9618  -41.7606 C.3      46        0    0.0000
    278 C          88.5312   87.6458  -42.8693 C.3      46        0    0.0000
    279 H          90.0446   87.6739  -41.3154 H        46        0    0.0000
    280 H          89.9382   86.1450  -42.1812 H        46        0    0.0000
    281 H          89.2088   88.0873  -43.6105 H        46        0    0.0000
    282 H          87.9211   86.9055  -43.4017 H        46        0    0.0000
    283 C          87.5904   88.7692  -42.3123 C.3      47        0    0.0000
    284 C          87.8074   90.1118  -43.0190 C.3      47        0    0.0000
    285 H          86.5481   88.4473  -42.4281 H        47        0    0.0000
    286 H          87.7687   88.8780  -41.2353 H        47        0    0.0000
    287 H          88.8497   90.4338  -42.9031 H        47        0    0.0000
    288 H          87.6291   90.0031  -44.0960 H        47        0    0.0000
    289 H          87.1532   90.8930  -42.6317 H        47        0    0.0000
    290 H         109.2798   87.8287  -40.4349 H         0        0    0.0000
@<TRIPOS>BOND
     1     1     2      1
     2     1     3      1
     3     1     4      1
     4     1   290      H
     5     2     5      1
     6     2     6      1
     7     2     7      1
     8     7     8      1
     9     7     9      1
    10     7    10      1
    11     8    11      1
    12     8    12      1
    13     8    13      1
    14    13    14      1
    15    13    15      1
    16    13    16      1
    17    14    17      1
    18    14    18      1
    19    14    19      1
    20    19    20      1
    21    19    21      1
    22    19    22      1
    23    20    23      1
    24    20    24      1
    25    20    25      1
    26    25    26      1
    27    25    27      1
    28    25    28      1
    29    26    29      1
    30    26    30      1
    31    26    31      1
    32    31    32      1
    33    31    33      1
    34    31    34      1
    35    32    35      1
    36    32    36      1
    37    32    37      1
    38    37    38      1
    39    37    39      1
    40    37    40      1
    41    38    41      1
    42    38    42      1
    43    38    43      1
    44    43    44      1
    45    43    45      1
    46    43    46      1
    47    44    47      1
    48    44    48      1
    49    44    49      1
    50    49    50      1
    51    49    51      1
    52    49    52      1
    53    50    53      1
    54    50    54      1
    55    50    55      1
    56    55    56      1
    57    55    57      1
    58    55    58      1
    59    56    59      1
    60    56    60      1
    61    56    61      1
    62    61    62      1
    63    61    63      1
    64    61    64      1
    65    62    65      1
    66    62    66      1
    67    62    67      1
    68    67    68      1
    69    67    69      1
    70    67    70      1
    71    68    71      1
    72    68    72      1
    73    68    73      1
    74    73    74      1
    75    73    75      1
    76    73    76      1
    77    74    77      1
    78    74    78      1
    79    74    79      1
    80    79    80      1
    81    79    81      1
    82    79    82      1
    83    80    83      1
    84    80    84      1
    85    80    85      1
    86    85    86      1
    87    85    87      1
    88    85    88      1
    89    86    89      1
    90    86    90      1
    91    86    91      1
    92    91    92      1
    93    91    93      1
    94    91    94      1
    95    92    95      1
    96    92    96      1
    97    92    97      1
    98    97    98      1
    99    97    99      1
   100    97   100      1
   101    98   101      1
   102    98   102      1
   103    98   103      1
   104   103   104      1
   105   103   105      1
   106   103   106      1
   107   104   107      1
   108   104   108      1
   109   104   109      1
   110   109   110      1
   111   109   111      1
   112   109   112      1
   113   110   113      1
   114   110   114      1
   115   110   115      1
   116   115   116      1
   117   115   117      1
   118   115   118      1
   119   116   119      1
   120   116   120      1
   121   116   121      1
   122   121   122      1
   123   121   123      1
   124   121   124      1
   125   122   125      1
   126   122   126      1
   127   122   127      1
   128   127   128      1
   129   127   129      1
   130   127   130      1
   131   128   131      1
   132   128   132      1
   133   128   133      1
   134   133   134      1
   135   133   135      1
   136   133   136      1
   137   134   137      1
   138   134   138      1
   139   134   139      1
   140   139   140      1
   141   139   141      1
   142   139   142      1
   143   140   143      1
   144   140   144      1
   145   140   145      1
   146   145   146      1
   147   145   147      1
   148   145   148      1
   149   146   149      1
   150   146   150      1
   151   146   151      1
   152   151   152      1
   153   151   153      1
   154   151   154      1
   155   152   155      1
   156   152   156      1
   157   152   157      1
   158   157   158      1
   159   157   159      1
   160   157   160      1
   161   158   161      1
   162   158   162      1
   163   158   163      1
   164   163   164      1
   165   163   165      1
   166   163   166      1
   167   164   167      1
   168   164   168      1
   169   164   169      1
   170   169   170      1
   171   169   171      1
   172   169   172      1
   173   170   173      1
   174   170   174      1
   175   170   175      1
   176   175   176      1
   177   175   177      1
   178   175   178      1
   179   176   179      1
   180   176   180      1
   181   176   181      1
   182   181   182      1
   183   181   183      1
   184   181   184      1
   185   182   185      1
   186   182   186      1
   187   182   187      1
   188   187   188      1
   189   187   189      1
   190   187   190      1
   191   188   191      1
   192   188   192      1
   193   188   193      1
   194   193   194      1
   195   193   195      1
   196   193   196      1
   197   194   197      1
   198   194   198      1
   199   194   199      1
   200   199   200      1
   201   199   201      1
   202   199   202      1
   203   200   203      1
   204   200   204      1
   205   200   205      1
   206   205   206      1
   207   205   207      1
   208   205   208      1
   209   206   209      1
   210   206   210      1
   211   206   211      1
   212   211   212      1
   213   211   213      1
   214   211   214      1
   215   212   215      1
   216   212   216      1
   217   212   217      1
   218   217   218      1
   219   217   219      1
   220   217   220      1
   221   218   221      1
   222   218   222      1
   223   218   223      1
   224   223   224      1
   225   223   225      1
   226   223   226      1
   227   224   227      1
   228   224   228      1
   229   224   229      1
   230   229   230      1
   231   229   231      1
   232   229   232      1
   233   230   233      1
   234   230   234      1
   235   230   235      1
   236   235   236      1
   237   235   237      1
   238   235   238      1
   239   236   239      1
   240   236   240      1
   241   236   241      1
   242   241   242      1
   243   241   243      1
   244   241   244      1
   245   242   245      1
   246   242   246      1
   247   242   247      1
   248   247   248      1
   249   247   249      1
   250   247   250      1
   251   248   251      1
   252   248   252      1
   253   248   253      1
   254   253   254      1
   255   253   255      1
   256   253   256      1
   257   254   257      1
   258   254   258      1
   259   254   259      1
   260   259   260      1
   261   259   261      1
   262   259   262      1
   263   260   263      1
   264   260   264      1
   265   260   265      1
   266   265   266      1
   267   265   267      1
   268   265   268      1
   269   266   269      1
   270   266   270      1
   271   266   271      1
   272   271   272      1
   273   271   273      1
   274   271   274      1
   275   272   275      1
   276   272   276      1
   277   272   277      1
   278   277   278      1
   279   277   279      1
   280   277   280      1
   281   278   281      1
   282   278   282      1
   283   278   283      1
   284   283   284      1
   285   283   285      1
   286   283   286      1
   287   284   287      1
   288   284   288      1
   289   284   289      H
