###
### Created by PolyChef-cpp17 on Thu Feb 27 19:40:30 2025
###

@<TRIPOS>MOLECULE
NO_INFO
146 145 1 0 0
SMALL
USER_CHARGES


@<TRIPOS>ATOM
      1 C          19.2798  105.1487  -39.3449 C.3       0        0    0.0000
      2 C          17.8706  104.9882  -38.7641 C.3       0        0    0.0000
      3 H          19.9271  104.3366  -38.9913 H         0        0    0.0000
      4 H          19.7280  106.0855  -38.9913 H         0        0    0.0000
      5 H          17.3719  105.9640  -38.7117 H         0        0    0.0000
      6 H          17.2613  104.3581  -39.4238 H         0        0    0.0000
      7 C          17.8874  104.3518  -37.3316 C.3       1        0    0.0000
      8 C          19.1654  104.6951  -36.5584 C.3       1        0    0.0000
      9 H          17.0074  104.7027  -36.7784 H         1        0    0.0000
     10 H          17.7862  103.2635  -37.4269 H         1        0    0.0000
     11 H          20.0456  104.5173  -37.1887 H         1        0    0.0000
     12 H          19.1735  105.7611  -36.2994 H         1        0    0.0000
     13 C          19.3079  103.8544  -35.2429 C.3       2        0    0.0000
     14 C          20.2064  104.5417  -34.2088 C.3       2        0    0.0000
     15 H          18.3093  103.6862  -34.8209 H         2        0    0.0000
     16 H          19.7132  102.8670  -35.4964 H         2        0    0.0000
     17 H          21.2607  104.4205  -34.4868 H         2        0    0.0000
     18 H          20.0064  105.6203  -34.1944 H         2        0    0.0000
     19 C          19.9955  103.9695  -32.7647 C.3       3        0    0.0000
     20 C          20.6207  104.8639  -31.6885 C.3       3        0    0.0000
     21 H          18.9195  103.8575  -32.5823 H         3        0    0.0000
     22 H          20.4297  102.9631  -32.7163 H         3        0    0.0000
     23 H          21.7098  104.9001  -31.8155 H         3        0    0.0000
     24 H          20.2565  105.8930  -31.7965 H         3        0    0.0000
     25 C          20.2975  104.3631  -30.2385 C.3       4        0    0.0000
     26 C          20.8993  105.2732  -29.1621 C.3       4        0    0.0000
     27 H          19.2085  104.3074  -30.1182 H         4        0    0.0000
     28 H          20.6798  103.3412  -30.1239 H         4        0    0.0000
     29 H          21.9888  105.3252  -29.2796 H         4        0    0.0000
     30 H          20.5205  106.2961  -29.2796 H         4        0    0.0000
     31 C          20.5706  104.7760  -27.7122 C.3       5        0    0.0000
     32 C          21.1614  105.6933  -26.6358 C.3       5        0    0.0000
     33 H          19.4813  104.7149  -27.5978 H         5        0    0.0000
     34 H          20.9577  103.7567  -27.5916 H         5        0    0.0000
     35 H          22.2509  105.7534  -26.7494 H         5        0    0.0000
     36 H          20.7753  106.7129  -26.7571 H         5        0    0.0000
     37 C          20.8313  105.1971  -25.1859 C.3       6        0    0.0000
     38 C          21.4623  106.0873  -24.1096 C.3       6        0    0.0000
     39 H          19.7417  105.1705  -25.0607 H         6        0    0.0000
     40 H          21.1864  104.1649  -25.0759 H         6        0    0.0000
     41 H          22.5512  106.1199  -24.2392 H         6        0    0.0000
     42 H          21.1015  107.1180  -24.2149 H         6        0    0.0000
     43 C          21.1408  105.5852  -22.6597 C.3       7        0    0.0000
     44 C          21.0098  106.7402  -21.6607 C.3       7        0    0.0000
     45 H          20.2115  105.0027  -22.6852 H         7        0    0.0000
     46 H          21.9342  104.8987  -22.3392 H         7        0    0.0000
     47 H          21.9774  107.2421  -21.5370 H         7        0    0.0000
     48 H          20.3112  107.4933  -22.0459 H         7        0    0.0000
     49 C          20.5081  106.2569  -20.2564 C.3       8        0    0.0000
     50 C          21.4375  106.7033  -19.1224 C.3       8        0    0.0000
     51 H          19.4964  106.6467  -20.0890 H         8        0    0.0000
     52 H          20.4264  105.1630  -20.2673 H         8        0    0.0000
     53 H          22.4810  106.6802  -19.4602 H         8        0    0.0000
     54 H          21.2194  107.7417  -18.8439 H         8        0    0.0000
     55 C          21.2984  105.7989  -17.8494 C.3       9        0    0.0000
     56 C          21.0247  106.6172  -16.5827 C.3       9        0    0.0000
     57 H          20.4877  105.0785  -18.0144 H         9        0    0.0000
     58 H          22.2191  105.2149  -17.7283 H         9        0    0.0000
     59 H          21.9390  107.1318  -16.2624 H         9        0    0.0000
     60 H          20.2813  107.3965  -16.7916 H         9        0    0.0000
     61 C          20.5053  105.7272  -15.4013 C.3      10        0    0.0000
     62 C          20.9293  106.2729  -14.0332 C.3      10        0    0.0000
     63 H          19.4115  105.6657  -15.4592 H        10        0    0.0000
     64 H          20.8857  104.7068  -15.5336 H        10        0    0.0000
     65 H          22.0090  106.4668  -14.0237 H        10        0    0.0000
     66 H          20.4350  107.2334  -13.8417 H        10        0    0.0000
     67 C          20.5831  105.2849  -12.8663 C.3      11        0    0.0000
     68 C          20.8195  105.9097  -11.4869 C.3      11        0    0.0000
     69 H          19.5352  104.9752  -12.9644 H        11        0    0.0000
     70 H          21.1912  104.3787  -12.9781 H        11        0    0.0000
     71 H          21.8766  106.1799  -11.3726 H        11        0    0.0000
     72 H          20.2446  106.8391  -11.3914 H        11        0    0.0000
     73 C          20.4159  104.9436  -10.3201 C.3      12        0    0.0000
     74 C          20.6743  105.5594   -8.9406 C.3      12        0    0.0000
     75 H          19.3544  104.6870  -10.4247 H        12        0    0.0000
     76 H          20.9782  104.0076  -10.4256 H        12        0    0.0000
     77 H          21.7354  105.8183   -8.8370 H        12        0    0.0000
     78 H          20.1101  106.4941   -8.8342 H        12        0    0.0000
     79 C          20.2741  104.5919   -7.7738 C.3      13        0    0.0000
     80 C          20.5343  105.2069   -6.3943 C.3      13        0    0.0000
     81 H          19.2127  104.3341   -7.8766 H        13        0    0.0000
     82 H          20.8373  103.6566   -7.8810 H        13        0    0.0000
     83 H          21.5959  105.4641   -6.2912 H        13        0    0.0000
     84 H          19.9717  106.1426   -6.2873 H        13        0    0.0000
     85 C          20.1332  104.2399   -5.2275 C.3      14        0    0.0000
     86 C          20.3885  104.8569   -3.8479 C.3      14        0    0.0000
     87 H          19.0726  103.9797   -5.3327 H        14        0    0.0000
     88 H          20.6987  103.3056   -5.3322 H        14        0    0.0000
     89 H          21.4489  105.1179   -3.7430 H        14        0    0.0000
     90 H          19.8223  105.7906   -3.7428 H        14        0    0.0000
     91 C          19.9886  103.8893   -2.6811 C.3      15        0    0.0000
     92 C          20.2979  104.4830   -1.3024 C.3      15        0    0.0000
     93 H          18.9183  103.6621   -2.7613 H        15        0    0.0000
     94 H          20.5227  102.9398   -2.8103 H        15        0    0.0000
     95 H          21.3683  104.7098   -1.2220 H        15        0    0.0000
     96 H          19.7642  105.4328   -1.1734 H        15        0    0.0000
     97 C          19.8973  103.5158   -0.1356 C.3      16        0    0.0000
     98 C          20.6979  103.7855    1.1432 C.3      16        0    0.0000
     99 H          18.8239  103.6260    0.0623 H        16        0    0.0000
    100 H          20.0523  102.4809   -0.4651 H        16        0    0.0000
    101 H          20.9241  104.8558    1.2267 H        16        0    0.0000
    102 H          20.1002  103.5203    2.0242 H        16        0    0.0000
    103 C          22.0423  102.9802    1.1836 C.3      17        0    0.0000
    104 C          22.5645  102.7928    2.6123 C.3      17        0    0.0000
    105 H          21.8837  102.0035    0.7098 H        17        0    0.0000
    106 H          22.7886  103.5074    0.5764 H        17        0    0.0000
    107 H          22.9098  103.7529    3.0155 H        17        0    0.0000
    108 H          21.7540  102.4494    3.2670 H        17        0    0.0000
    109 C          23.7430  101.7616    2.6836 C.3      18        0    0.0000
    110 C          23.6929  100.9094    3.9565 C.3      18        0    0.0000
    111 H          23.7024  101.1164    1.7972 H        18        0    0.0000
    112 H          24.6936  102.3069    2.6331 H        18        0    0.0000
    113 H          24.0674  101.4870    4.8108 H        18        0    0.0000
    114 H          22.6550  100.6406    4.1887 H        18        0    0.0000
    115 C          24.5379   99.5955    3.8255 C.3      19        0    0.0000
    116 C          24.1641   98.5562    4.8881 C.3      19        0    0.0000
    117 H          24.3890   99.1779    2.8220 H        19        0    0.0000
    118 H          25.6020   99.8500    3.9061 H        19        0    0.0000
    119 H          24.4320   98.9252    5.8859 H        19        0    0.0000
    120 H          23.0788   98.3961    4.8923 H        19        0    0.0000
    121 C          24.8769   97.1804    4.6500 C.3      20        0    0.0000
    122 C          24.4847   96.1338    5.6988 C.3      20        0    0.0000
    123 H          24.6230   96.8198    3.6455 H        20        0    0.0000
    124 H          25.9625   97.3376    4.6632 H        20        0    0.0000
    125 H          24.7334   96.4968    6.7037 H        20        0    0.0000
    126 H          23.3997   95.9725    5.6817 H        20        0    0.0000
    127 C          25.2035   94.7604    5.4653 C.3      21        0    0.0000
    128 C          24.8232   93.7186    6.5231 C.3      21        0    0.0000
    129 H          24.9456   94.3919    4.4647 H        21        0    0.0000
    130 H          26.2883   94.9236    5.4710 H        21        0    0.0000
    131 H          23.7886   93.3873    6.3699 H        21        0    0.0000
    132 H          25.4573   92.8293    6.4203 H        21        0    0.0000
    133 C          24.9649   94.2743    7.9821 C.3      22        0    0.0000
    134 C          24.3086   93.3566    9.0195 C.3      22        0    0.0000
    135 H          26.0306   94.3991    8.2110 H        22        0    0.0000
    136 H          24.5143   95.2736    8.0253 H        22        0    0.0000
    137 H          24.9405   93.2872    9.9136 H        22        0    0.0000
    138 H          23.3499   93.7802    9.3434 H        22        0    0.0000
    139 C          24.0606   91.9123    8.4627 C.3      23        0    0.0000
    140 C          23.3467   91.0131    9.4780 C.3      23        0    0.0000
    141 H          23.4678   91.9851    7.5425 H        23        0    0.0000
    142 H          25.0250   91.4711    8.1821 H        23        0    0.0000
    143 H          23.9395   90.9403   10.3982 H        23        0    0.0000
    144 H          22.3823   91.4543    9.7585 H        23        0    0.0000
    145 H          23.1742   90.0088    9.0908 H        23        0    0.0000
    146 H          19.2798  105.1487  -40.4349 H         0        0    0.0000
@<TRIPOS>BOND
     1     1     2      1
     2     1     3      1
     3     1     4      1
     4     1   146      H
     5     2     5      1
     6     2     6      1
     7     2     7      1
     8     7     8      1
     9     7     9      1
    10     7    10      1
    11     8    11      1
    12     8    12      1
    13     8    13      1
    14    13    14      1
    15    13    15      1
    16    13    16      1
    17    14    17      1
    18    14    18      1
    19    14    19      1
    20    19    20      1
    21    19    21      1
    22    19    22      1
    23    20    23      1
    24    20    24      1
    25    20    25      1
    26    25    26      1
    27    25    27      1
    28    25    28      1
    29    26    29      1
    30    26    30      1
    31    26    31      1
    32    31    32      1
    33    31    33      1
    34    31    34      1
    35    32    35      1
    36    32    36      1
    37    32    37      1
    38    37    38      1
    39    37    39      1
    40    37    40      1
    41    38    41      1
    42    38    42      1
    43    38    43      1
    44    43    44      1
    45    43    45      1
    46    43    46      1
    47    44    47      1
    48    44    48      1
    49    44    49      1
    50    49    50      1
    51    49    51      1
    52    49    52      1
    53    50    53      1
    54    50    54      1
    55    50    55      1
    56    55    56      1
    57    55    57      1
    58    55    58      1
    59    56    59      1
    60    56    60      1
    61    56    61      1
    62    61    62      1
    63    61    63      1
    64    61    64      1
    65    62    65      1
    66    62    66      1
    67    62    67      1
    68    67    68      1
    69    67    69      1
    70    67    70      1
    71    68    71      1
    72    68    72      1
    73    68    73      1
    74    73    74      1
    75    73    75      1
    76    73    76      1
    77    74    77      1
    78    74    78      1
    79    74    79      1
    80    79    80      1
    81    79    81      1
    82    79    82      1
    83    80    83      1
    84    80    84      1
    85    80    85      1
    86    85    86      1
    87    85    87      1
    88    85    88      1
    89    86    89      1
    90    86    90      1
    91    86    91      1
    92    91    92      1
    93    91    93      1
    94    91    94      1
    95    92    95      1
    96    92    96      1
    97    92    97      1
    98    97    98      1
    99    97    99      1
   100    97   100      1
   101    98   101      1
   102    98   102      1
   103    98   103      1
   104   103   104      1
   105   103   105      1
   106   103   106      1
   107   104   107      1
   108   104   108      1
   109   104   109      1
   110   109   110      1
   111   109   111      1
   112   109   112      1
   113   110   113      1
   114   110   114      1
   115   110   115      1
   116   115   116      1
   117   115   117      1
   118   115   118      1
   119   116   119      1
   120   116   120      1
   121   116   121      1
   122   121   122      1
   123   121   123      1
   124   121   124      1
   125   122   125      1
   126   122   126      1
   127   122   127      1
   128   127   128      1
   129   127   129      1
   130   127   130      1
   131   128   131      1
   132   128   132      1
   133   128   133      1
   134   133   134      1
   135   133   135      1
   136   133   136      1
   137   134   137      1
   138   134   138      1
   139   134   139      1
   140   139   140      1
   141   139   141      1
   142   139   142      1
   143   140   143      1
   144   140   144      1
   145   140   145      H
