###
### Created by PolyChef-cpp17 on Thu Feb 27 19:40:28 2025
###

@<TRIPOS>MOLECULE
NO_INFO
302 301 1 0 0
SMALL
USER_CHARGES


@<TRIPOS>ATOM
      1 C          29.2798  122.4687  120.6551 C.3       0        0    0.0000
      2 C          28.4513  121.3175  120.0742 C.3       0        0    0.0000
      3 H          28.8875  123.4302  120.3015 H         0        0    0.0000
      4 H          30.3162  122.4021  120.3014 H         0        0    0.0000
      5 H          28.4064  120.4877  120.7904 H         0        0    0.0000
      6 H          27.4178  121.6451  119.9064 H         0        0    0.0000
      7 C          29.0389  120.7862  118.7214 C.3       1        0    0.0000
      8 C          29.6360  121.9094  117.8665 C.3       1        0    0.0000
      9 H          29.8052  120.0324  118.9406 H         1        0    0.0000
     10 H          28.2427  120.2741  118.1670 H         1        0    0.0000
     11 H          28.9449  122.7606  117.8279 H         1        0    0.0000
     12 H          30.5634  122.2771  118.3229 H         1        0    0.0000
     13 C          29.9441  121.4419  116.4023 C.3       2        0    0.0000
     14 C          29.8872  122.5991  115.3990 C.3       2        0    0.0000
     15 H          30.9365  120.9747  116.3818 H         2        0    0.0000
     16 H          29.2237  120.6639  116.1206 H         2        0    0.0000
     17 H          28.9675  123.1789  115.5452 H         2        0    0.0000
     18 H          30.7241  123.2873  115.5706 H         2        0    0.0000
     19 C          29.9394  122.1006  113.9136 C.3       3        0    0.0000
     20 C          29.8268  123.2533  112.9098 C.3       3        0    0.0000
     21 H          30.8783  121.5553  113.7564 H         3        0    0.0000
     22 H          29.1267  121.3813  113.7532 H         3        0    0.0000
     23 H          28.8938  123.8062  113.0751 H         3        0    0.0000
     24 H          30.6466  123.9662  113.0621 H         3        0    0.0000
     25 C          29.8614  122.7532  111.4245 C.3       4        0    0.0000
     26 C          29.9395  123.9110  110.4234 C.3       4        0    0.0000
     27 H          30.7228  122.0860  111.2960 H         4        0    0.0000
     28 H          28.9649  122.1504  111.2333 H         4        0    0.0000
     29 H          29.0645  124.5635  110.5338 H         4        0    0.0000
     30 H          30.8216  124.5292  110.6313 H         4        0    0.0000
     31 C          30.0121  123.4098  108.9398 C.3       5        0    0.0000
     32 C          28.9957  124.1178  108.0372 C.3       5        0    0.0000
     33 H          31.0288  123.5722  108.5610 H         5        0    0.0000
     34 H          29.8391  122.3266  108.9237 H         5        0    0.0000
     35 H          28.0312  124.2046  108.5526 H         5        0    0.0000
     36 H          29.3312  125.1400  107.8224 H         5        0    0.0000
     37 C          28.7777  123.3621  106.6811 C.3       6        0    0.0000
     38 C          29.1839  124.2109  105.4713 C.3       6        0    0.0000
     39 H          29.3568  122.4305  106.6984 H         6        0    0.0000
     40 H          27.7218  123.0753  106.6019 H         6        0    0.0000
     41 H          28.3374  124.8263  105.1423 H         6        0    0.0000
     42 H          29.9873  124.9038  105.7506 H         6        0    0.0000
     43 C          29.6695  123.3337  104.2662 C.3       7        0    0.0000
     44 C          29.1212  123.8344  102.9254 C.3       7        0    0.0000
     45 H          30.7664  123.3342  104.2478 H         7        0    0.0000
     46 H          29.3576  122.2958  104.4361 H         7        0    0.0000
     47 H          28.0435  124.0227  103.0064 H         7        0    0.0000
     48 H          29.5892  124.7908  102.6611 H         7        0    0.0000
     49 C          29.3695  122.8121  101.7631 C.3       8        0    0.0000
     50 C          29.2280  123.4588  100.3807 C.3       8        0    0.0000
     51 H          30.3731  122.3840  101.8771 H         8        0    0.0000
     52 H          28.6595  121.9820  101.8646 H         8        0    0.0000
     53 H          28.2006  123.8150  100.2355 H         8        0    0.0000
     54 H          29.8796  124.3384  100.3084 H         8        0    0.0000
     55 C          29.5875  122.4669   99.2213 C.3       9        0    0.0000
     56 C          29.3733  123.0892   97.8371 C.3       9        0    0.0000
     57 H          30.6328  122.1538   99.3352 H         9        0    0.0000
     58 H          28.9747  121.5631   99.3263 H         9        0    0.0000
     59 H          28.3314  123.4151   97.7284 H         9        0    0.0000
     60 H          29.9967  123.9852   97.7269 H         9        0    0.0000
     61 C          29.7140  122.0908   96.6776 C.3      10        0    0.0000
     62 C          29.4934  122.7109   95.2935 C.3      10        0    0.0000
     63 H          30.7574  121.7687   96.7835 H        10        0    0.0000
     64 H          29.0941  121.1928   96.7906 H        10        0    0.0000
     65 H          28.4495  123.0310   95.1868 H        10        0    0.0000
     66 H          30.1117  123.6102   95.1813 H        10        0    0.0000
     67 C          29.8371  121.7135   94.1340 C.3      11        0    0.0000
     68 C          29.6183  122.3343   92.7498 C.3      11        0    0.0000
     69 H          30.8806  121.3923   94.2415 H        11        0    0.0000
     70 H          29.2178  120.8149   94.2453 H        11        0    0.0000
     71 H          28.5745  122.6541   92.6417 H        11        0    0.0000
     72 H          30.2365  123.2339   92.6391 H        11        0    0.0000
     73 C          29.9642  121.3376   91.5903 C.3      12        0    0.0000
     74 C          29.7474  121.9591   90.2062 C.3      12        0    0.0000
     75 H          31.0076  121.0167   91.6993 H        12        0    0.0000
     76 H          29.3450  120.4387   91.7002 H        12        0    0.0000
     77 H          28.7028  122.2755   90.0953 H        12        0    0.0000
     78 H          30.3629  122.8608   90.0981 H        12        0    0.0000
     79 C          30.1000  120.9648   89.0467 C.3      13        0    0.0000
     80 C          29.8774  121.5842   87.6625 C.3      13        0    0.0000
     81 H          31.1459  120.6519   89.1550 H        13        0    0.0000
     82 H          29.4877  120.0612   89.1573 H        13        0    0.0000
     83 H          28.8296  121.8898   87.5513 H        13        0    0.0000
     84 H          30.4835  122.4922   87.5549 H        13        0    0.0000
     85 C          30.2406  120.5938   86.5030 C.3      14        0    0.0000
     86 C          30.0092  121.2099   85.1189 C.3      14        0    0.0000
     87 H          31.2903  120.2934   86.6104 H        14        0    0.0000
     88 H          29.6394  119.6829   86.6146 H        14        0    0.0000
     89 H          28.9527  121.4802   84.9993 H        14        0    0.0000
     90 H          30.5851  122.1383   85.0194 H        14        0    0.0000
     91 C          30.4160  120.2363   83.9596 C.3      15        0    0.0000
     92 C          30.1903  120.8547   82.5755 C.3      15        0    0.0000
     93 H          31.4713  119.9625   84.0817 H        15        0    0.0000
     94 H          29.8369  119.3096   84.0565 H        15        0    0.0000
     95 H          29.1492  121.1863   82.4769 H        15        0    0.0000
     96 H          30.8177  121.7466   82.4552 H        15        0    0.0000
     97 C          30.5126  119.8500   81.4161 C.3      16        0    0.0000
     98 C          30.2681  120.4620   80.0324 C.3      16        0    0.0000
     99 H          31.5579  119.5295   81.5063 H        16        0    0.0000
    100 H          29.8955  118.9521   81.5447 H        16        0    0.0000
    101 H          31.0329  121.2178   79.8149 H        16        0    0.0000
    102 H          30.3588  119.6900   79.2583 H        16        0    0.0000
    103 C          28.8533  121.1277   79.9188 C.3      17        0    0.0000
    104 C          28.6800  121.9035   78.6084 C.3      17        0    0.0000
    105 H          28.0875  120.3461   79.9973 H        17        0    0.0000
    106 H          28.7082  121.7981   80.7749 H        17        0    0.0000
    107 H          27.7117  121.6614   78.1532 H        17        0    0.0000
    108 H          28.6734  122.9822   78.8080 H        17        0    0.0000
    109 C          29.8167  121.5875   77.5761 C.3      18        0    0.0000
    110 C          29.5992  122.2997   76.2365 C.3      18        0    0.0000
    111 H          30.7799  121.8856   78.0085 H        18        0    0.0000
    112 H          29.8629  120.5023   77.4221 H        18        0    0.0000
    113 H          29.7351  123.3814   76.3591 H        18        0    0.0000
    114 H          30.3497  121.9684   75.5082 H        18        0    0.0000
    115 C          28.1711  122.0335   75.6472 C.3      19        0    0.0000
    116 C          27.9049  122.8507   74.3782 C.3      19        0    0.0000
    117 H          28.0712  120.9623   75.4326 H        19        0    0.0000
    118 H          27.4225  122.2726   76.4126 H        19        0    0.0000
    119 H          27.5102  122.2003   73.5878 H        19        0    0.0000
    120 H          27.1375  123.6099   74.5738 H        19        0    0.0000
    121 C          29.1969  123.5630   73.8483 C.3      20        0    0.0000
    122 C          28.9011  124.5070   72.6776 C.3      20        0    0.0000
    123 H          29.6573  124.1200   74.6736 H        20        0    0.0000
    124 H          29.9214  122.7986   73.5413 H        20        0    0.0000
    125 H          29.0304  125.5497   72.9933 H        20        0    0.0000
    126 H          29.6163  124.3331   71.8641 H        20        0    0.0000
    127 C          27.4474  124.3245   72.1200 C.3      21        0    0.0000
    128 C          27.0699  125.4171   71.1136 C.3      21        0    0.0000
    129 H          27.3707  123.3366   71.6491 H        21        0    0.0000
    130 H          26.7430  124.3281   72.9610 H        21        0    0.0000
    131 H          27.8825  125.5594   70.3904 H        21        0    0.0000
    132 H          26.1870  125.1106   70.5391 H        21        0    0.0000
    133 C          26.7680  126.7884   71.8108 C.3      22        0    0.0000
    134 C          26.2346  127.8353   70.8268 C.3      22        0    0.0000
    135 H          26.0408  126.6234   72.6155 H        22        0    0.0000
    136 H          27.6869  127.1530   72.2865 H        22        0    0.0000
    137 H          27.0665  128.2954   70.2794 H        22        0    0.0000
    138 H          25.5922  127.3551   70.0782 H        22        0    0.0000
    139 C          25.4169  128.9636   71.5451 C.3      23        0    0.0000
    140 C          24.9051  130.0242   70.5641 C.3      23        0    0.0000
    141 H          24.5740  128.5053   72.0771 H        23        0    0.0000
    142 H          26.0533  129.4313   72.3065 H        23        0    0.0000
    143 H          25.7406  130.4329   69.9824 H        23        0    0.0000
    144 H          24.2134  129.5686   69.8447 H        23        0    0.0000
    145 C          24.1723  131.2030   71.2928 C.3      24        0    0.0000
    146 C          23.6655  132.2664   70.3123 C.3      24        0    0.0000
    147 H          23.3343  130.7947   71.8712 H        24        0    0.0000
    148 H          24.8627  131.6559   72.0152 H        24        0    0.0000
    149 H          24.5020  132.6668   69.7262 H        24        0    0.0000
    150 H          22.9666  131.8157   69.5968 H        24        0    0.0000
    151 C          22.9464  133.4528   71.0422 C.3      25        0    0.0000
    152 C          22.5598  134.5794   70.0776 C.3      25        0    0.0000
    153 H          22.0524  133.0671   71.5478 H        25        0    0.0000
    154 H          23.6093  133.8397   71.8260 H        25        0    0.0000
    155 H          23.4484  134.9400   69.5449 H        25        0    0.0000
    156 H          21.8675  134.2009   69.3153 H        25        0    0.0000
    157 C          21.8874  135.7883   70.8150 C.3      26        0    0.0000
    158 C          22.4823  137.1341   70.3859 C.3      26        0    0.0000
    159 H          20.8095  135.7715   70.6115 H        26        0    0.0000
    160 H          22.0059  135.6526   71.8972 H        26        0    0.0000
    161 H          23.4734  136.9824   69.9406 H        26        0    0.0000
    162 H          21.8555  137.5924   69.6109 H        26        0    0.0000
    163 C          22.6151  138.1345   71.5855 C.3      27        0    0.0000
    164 C          21.3617  138.9985   71.7628 C.3      27        0    0.0000
    165 H          22.8113  137.5639   72.5017 H        27        0    0.0000
    166 H          23.4914  138.7729   71.4181 H        27        0    0.0000
    167 H          21.6471  140.0367   71.9728 H        27        0    0.0000
    168 H          20.7805  139.0135   70.8324 H        27        0    0.0000
    169 C          20.4436  138.4821   72.9238 C.3      28        0    0.0000
    170 C          20.1121  139.5842   73.9361 C.3      28        0    0.0000
    171 H          19.5197  138.0785   72.4912 H        28        0    0.0000
    172 H          20.9464  137.6474   73.4277 H        28        0    0.0000
    173 H          20.8471  140.3954   73.8632 H        28        0    0.0000
    174 H          19.1336  140.0240   73.7064 H        28        0    0.0000
    175 C          20.0928  139.0508   75.4100 C.3      29        0    0.0000
    176 C          20.1863  140.1830   76.4388 C.3      29        0    0.0000
    177 H          19.1716  138.4759   75.5660 H        29        0    0.0000
    178 H          20.9272  138.3512   75.5438 H        29        0    0.0000
    179 H          21.1013  140.7656   76.2748 H        29        0    0.0000
    180 H          19.3450  140.8758   76.3132 H        29        0    0.0000
    181 C          20.1849  139.6484   77.9124 C.3      30        0    0.0000
    182 C          19.8956  140.7558   78.9318 C.3      30        0    0.0000
    183 H          19.4352  138.8522   77.9990 H        30        0    0.0000
    184 H          21.1586  139.1886   78.1227 H        30        0    0.0000
    185 H          20.6823  141.5193   78.8913 H        30        0    0.0000
    186 H          18.9539  141.2602   78.6821 H        30        0    0.0000
    187 C          19.8009  140.2051   80.3964 C.3      31        0    0.0000
    188 C          20.1252  141.2775   81.4423 C.3      31        0    0.0000
    189 H          18.7901  139.8120   80.5617 H        31        0    0.0000
    190 H          20.4895  139.3575   80.5007 H        31        0    0.0000
    191 H          21.0816  141.7589   81.2033 H        31        0    0.0000
    192 H          19.3622  142.0654   81.4222 H        31        0    0.0000
    193 C          20.2048  140.6880   82.8927 C.3      32        0    0.0000
    194 C          19.3355  141.4678   83.8852 C.3      32        0    0.0000
    195 H          19.8928  139.6366   82.8647 H        32        0    0.0000
    196 H          21.2515  140.6973   83.2213 H        32        0    0.0000
    197 H          19.8139  142.4232   84.1344 H        32        0    0.0000
    198 H          18.3678  141.7098   83.4284 H        32        0    0.0000
    199 C          19.0832  140.6684   85.2098 C.3      33        0    0.0000
    200 C          19.6608  141.3813   86.4375 C.3      33        0    0.0000
    201 H          18.0031  140.5214   85.3338 H        33        0    0.0000
    202 H          19.5276  139.6703   85.1106 H        33        0    0.0000
    203 H          20.5816  141.9121   86.1656 H        33        0    0.0000
    204 H          18.9551  142.1395   86.7989 H        33        0    0.0000
    205 C          19.9775  140.3871   87.6075 C.3      34        0    0.0000
    206 C          19.7341  141.0144   88.9846 C.3      34        0    0.0000
    207 H          19.3567  139.4906   87.4875 H        34        0    0.0000
    208 H          21.0215  140.0612   87.5218 H        34        0    0.0000
    209 H          20.4716  141.8042   89.1738 H        34        0    0.0000
    210 H          18.7470  141.4922   89.0111 H        34        0    0.0000
    211 C          19.8159  139.9590   90.1409 C.3      35        0    0.0000
    212 C          19.7376  140.6087   91.5268 C.3      35        0    0.0000
    213 H          19.0002  139.2358   90.0179 H        35        0    0.0000
    214 H          20.7528  139.3972   90.0412 H        35        0    0.0000
    215 H          20.5291  141.3607   91.6350 H        35        0    0.0000
    216 H          18.7831  141.1374   91.6411 H        35        0    0.0000
    217 C          19.8758  139.5596   92.6834 C.3      36        0    0.0000
    218 C          19.7849  140.2077   94.0694 C.3      36        0    0.0000
    219 H          19.0900  138.8026   92.5699 H        36        0    0.0000
    220 H          20.8344  139.0374   92.5745 H        36        0    0.0000
    221 H          20.5712  140.9642   94.1832 H        36        0    0.0000
    222 H          18.8266  140.7305   94.1781 H        36        0    0.0000
    223 C          19.9221  139.1584   95.2260 C.3      37        0    0.0000
    224 C          19.8343  139.8069   96.6119 C.3      37        0    0.0000
    225 H          19.1345  138.4031   95.1135 H        37        0    0.0000
    226 H          20.8795  138.6341   95.1160 H        37        0    0.0000
    227 H          20.6226  140.5614   96.7248 H        37        0    0.0000
    228 H          18.8774  140.3322   96.7215 H        37        0    0.0000
    229 C          19.9700  138.7575   97.7685 C.3      38        0    0.0000
    230 C          19.8889  139.4068   99.1545 C.3      38        0    0.0000
    231 H          19.1786  138.0057   97.6585 H        38        0    0.0000
    232 H          20.9246  138.2287   97.6561 H        38        0    0.0000
    233 H          20.6793  140.1597   99.2640 H        38        0    0.0000
    234 H          18.9336  139.9342   99.2675 H        38        0    0.0000
    235 C          20.0267  138.3576  100.3111 C.3      39        0    0.0000
    236 C          19.9430  139.0066  101.6970 C.3      39        0    0.0000
    237 H          19.2375  137.6037  100.2005 H        39        0    0.0000
    238 H          20.9829  137.8315  100.1992 H        39        0    0.0000
    239 H          20.7356  139.7567  101.8096 H        39        0    0.0000
    240 H          18.9892  139.5373  101.8069 H        39        0    0.0000
    241 C          20.0732  137.9565  102.8536 C.3      40        0    0.0000
    242 C          19.9933  138.6059  104.2396 C.3      40        0    0.0000
    243 H          19.2790  137.2079  102.7427 H        40        0    0.0000
    244 H          21.0259  137.4239  102.7421 H        40        0    0.0000
    245 H          20.7860  139.3564  104.3496 H        40        0    0.0000
    246 H          19.0396  139.1363  104.3521 H        40        0    0.0000
    247 C          20.1273  137.5563  105.3962 C.3      41        0    0.0000
    248 C          20.0453  138.2055  106.7821 C.3      41        0    0.0000
    249 H          19.3356  136.8050  105.2853 H        41        0    0.0000
    250 H          21.0817  137.0270  105.2846 H        41        0    0.0000
    251 H          20.8399  138.9535  106.8947 H        41        0    0.0000
    252 H          19.0928  138.7386  106.8921 H        41        0    0.0000
    253 C          20.1728  137.1550  107.9387 C.3      42        0    0.0000
    254 C          20.0914  137.8043  109.3247 C.3      42        0    0.0000
    255 H          19.3781  136.4072  107.8264 H        42        0    0.0000
    256 H          21.1252  136.6216  107.8285 H        42        0    0.0000
    257 H          20.8702  138.5700  109.4277 H        42        0    0.0000
    258 H          19.1285  138.3162  109.4443 H        42        0    0.0000
    259 C          20.2548  136.7586  110.4811 C.3      43        0    0.0000
    260 C          20.1691  137.4072  111.8671 C.3      43        0    0.0000
    261 H          19.4780  135.9911  110.3763 H        43        0    0.0000
    262 H          21.2191  136.2489  110.3633 H        43        0    0.0000
    263 H          20.1242  136.6327  112.6427 H        43        0    0.0000
    264 H          21.0732  137.9971  112.0629 H        43        0    0.0000
    265 C          18.9168  138.3392  112.0105 C.3      44        0    0.0000
    266 C          18.8568  139.0249  113.3799 C.3      44        0    0.0000
    267 H          18.9436  139.0925  111.2134 H        44        0    0.0000
    268 H          18.0110  137.7417  111.8489 H        44        0    0.0000
    269 H          18.9147  140.1137  113.2582 H        44        0    0.0000
    270 H          17.8960  138.8128  113.8650 H        44        0    0.0000
    271 C          20.0153  138.5602  114.3283 C.3      45        0    0.0000
    272 C          19.7537  138.9346  115.7913 C.3      45        0    0.0000
    273 H          20.1354  137.4738  114.2337 H        45        0    0.0000
    274 H          20.9548  139.0119  113.9865 H        45        0    0.0000
    275 H          20.1306  139.9447  115.9942 H        45        0    0.0000
    276 H          18.6744  138.9558  115.9870 H        45        0    0.0000
    277 C          20.4289  137.9332  116.7907 C.3      46        0    0.0000
    278 C          20.1686  138.3084  118.2537 C.3      46        0    0.0000
    279 H          20.0513  136.9232  116.5884 H        46        0    0.0000
    280 H          21.5080  137.9112  116.5942 H        46        0    0.0000
    281 H          19.1232  138.1019  118.5147 H        46        0    0.0000
    282 H          20.7868  137.6902  118.9163 H        46        0    0.0000
    283 C          20.4726  139.8189  118.5427 C.3      47        0    0.0000
    284 C          20.2103  140.1946  120.0053 C.3      47        0    0.0000
    285 H          21.5183  140.0251  118.2831 H        47        0    0.0000
    286 H          19.8554  140.4371  117.8791 H        47        0    0.0000
    287 H          20.5904  141.2035  120.2085 H        47        0    0.0000
    288 H          19.1309  140.2195  120.1996 H        47        0    0.0000
    289 C          20.8808  139.1911  121.0058 C.3      48        0    0.0000
    290 C          20.1233  139.1032  122.3353 C.3      48        0    0.0000
    291 H          20.9297  138.2016  120.5346 H        48        0    0.0000
    292 H          21.9163  139.5072  121.1830 H        48        0    0.0000
    293 H          20.7042  138.5211  123.0615 H        48        0    0.0000
    294 H          19.9974  140.1054  122.7635 H        48        0    0.0000
    295 C          18.7111  138.4425  122.1720 C.3      49        0    0.0000
    296 C          18.4338  137.3904  123.2515 C.3      49        0    0.0000
    297 H          17.9467  139.2285  122.2075 H        49        0    0.0000
    298 H          18.6474  137.9858  121.1765 H        49        0    0.0000
    299 H          19.1982  136.6044  123.2160 H        49        0    0.0000
    300 H          18.4975  137.8471  124.2470 H        49        0    0.0000
    301 H          17.4519  136.9310  123.1380 H        49        0    0.0000
    302 H          29.2798  122.4687  121.7450 H         0        0    0.0000
@<TRIPOS>BOND
     1     1     2      1
     2     1     3      1
     3     1     4      1
     4     1   302      H
     5     2     5      1
     6     2     6      1
     7     2     7      1
     8     7     8      1
     9     7     9      1
    10     7    10      1
    11     8    11      1
    12     8    12      1
    13     8    13      1
    14    13    14      1
    15    13    15      1
    16    13    16      1
    17    14    17      1
    18    14    18      1
    19    14    19      1
    20    19    20      1
    21    19    21      1
    22    19    22      1
    23    20    23      1
    24    20    24      1
    25    20    25      1
    26    25    26      1
    27    25    27      1
    28    25    28      1
    29    26    29      1
    30    26    30      1
    31    26    31      1
    32    31    32      1
    33    31    33      1
    34    31    34      1
    35    32    35      1
    36    32    36      1
    37    32    37      1
    38    37    38      1
    39    37    39      1
    40    37    40      1
    41    38    41      1
    42    38    42      1
    43    38    43      1
    44    43    44      1
    45    43    45      1
    46    43    46      1
    47    44    47      1
    48    44    48      1
    49    44    49      1
    50    49    50      1
    51    49    51      1
    52    49    52      1
    53    50    53      1
    54    50    54      1
    55    50    55      1
    56    55    56      1
    57    55    57      1
    58    55    58      1
    59    56    59      1
    60    56    60      1
    61    56    61      1
    62    61    62      1
    63    61    63      1
    64    61    64      1
    65    62    65      1
    66    62    66      1
    67    62    67      1
    68    67    68      1
    69    67    69      1
    70    67    70      1
    71    68    71      1
    72    68    72      1
    73    68    73      1
    74    73    74      1
    75    73    75      1
    76    73    76      1
    77    74    77      1
    78    74    78      1
    79    74    79      1
    80    79    80      1
    81    79    81      1
    82    79    82      1
    83    80    83      1
    84    80    84      1
    85    80    85      1
    86    85    86      1
    87    85    87      1
    88    85    88      1
    89    86    89      1
    90    86    90      1
    91    86    91      1
    92    91    92      1
    93    91    93      1
    94    91    94      1
    95    92    95      1
    96    92    96      1
    97    92    97      1
    98    97    98      1
    99    97    99      1
   100    97   100      1
   101    98   101      1
   102    98   102      1
   103    98   103      1
   104   103   104      1
   105   103   105      1
   106   103   106      1
   107   104   107      1
   108   104   108      1
   109   104   109      1
   110   109   110      1
   111   109   111      1
   112   109   112      1
   113   110   113      1
   114   110   114      1
   115   110   115      1
   116   115   116      1
   117   115   117      1
   118   115   118      1
   119   116   119      1
   120   116   120      1
   121   116   121      1
   122   121   122      1
   123   121   123      1
   124   121   124      1
   125   122   125      1
   126   122   126      1
   127   122   127      1
   128   127   128      1
   129   127   129      1
   130   127   130      1
   131   128   131      1
   132   128   132      1
   133   128   133      1
   134   133   134      1
   135   133   135      1
   136   133   136      1
   137   134   137      1
   138   134   138      1
   139   134   139      1
   140   139   140      1
   141   139   141      1
   142   139   142      1
   143   140   143      1
   144   140   144      1
   145   140   145      1
   146   145   146      1
   147   145   147      1
   148   145   148      1
   149   146   149      1
   150   146   150      1
   151   146   151      1
   152   151   152      1
   153   151   153      1
   154   151   154      1
   155   152   155      1
   156   152   156      1
   157   152   157      1
   158   157   158      1
   159   157   159      1
   160   157   160      1
   161   158   161      1
   162   158   162      1
   163   158   163      1
   164   163   164      1
   165   163   165      1
   166   163   166      1
   167   164   167      1
   168   164   168      1
   169   164   169      1
   170   169   170      1
   171   169   171      1
   172   169   172      1
   173   170   173      1
   174   170   174      1
   175   170   175      1
   176   175   176      1
   177   175   177      1
   178   175   178      1
   179   176   179      1
   180   176   180      1
   181   176   181      1
   182   181   182      1
   183   181   183      1
   184   181   184      1
   185   182   185      1
   186   182   186      1
   187   182   187      1
   188   187   188      1
   189   187   189      1
   190   187   190      1
   191   188   191      1
   192   188   192      1
   193   188   193      1
   194   193   194      1
   195   193   195      1
   196   193   196      1
   197   194   197      1
   198   194   198      1
   199   194   199      1
   200   199   200      1
   201   199   201      1
   202   199   202      1
   203   200   203      1
   204   200   204      1
   205   200   205      1
   206   205   206      1
   207   205   207      1
   208   205   208      1
   209   206   209      1
   210   206   210      1
   211   206   211      1
   212   211   212      1
   213   211   213      1
   214   211   214      1
   215   212   215      1
   216   212   216      1
   217   212   217      1
   218   217   218      1
   219   217   219      1
   220   217   220      1
   221   218   221      1
   222   218   222      1
   223   218   223      1
   224   223   224      1
   225   223   225      1
   226   223   226      1
   227   224   227      1
   228   224   228      1
   229   224   229      1
   230   229   230      1
   231   229   231      1
   232   229   232      1
   233   230   233      1
   234   230   234      1
   235   230   235      1
   236   235   236      1
   237   235   237      1
   238   235   238      1
   239   236   239      1
   240   236   240      1
   241   236   241      1
   242   241   242      1
   243   241   243      1
   244   241   244      1
   245   242   245      1
   246   242   246      1
   247   242   247      1
   248   247   248      1
   249   247   249      1
   250   247   250      1
   251   248   251      1
   252   248   252      1
   253   248   253      1
   254   253   254      1
   255   253   255      1
   256   253   256      1
   257   254   257      1
   258   254   258      1
   259   254   259      1
   260   259   260      1
   261   259   261      1
   262   259   262      1
   263   260   263      1
   264   260   264      1
   265   260   265      1
   266   265   266      1
   267   265   267      1
   268   265   268      1
   269   266   269      1
   270   266   270      1
   271   266   271      1
   272   271   272      1
   273   271   273      1
   274   271   274      1
   275   272   275      1
   276   272   276      1
   277   272   277      1
   278   277   278      1
   279   277   279      1
   280   277   280      1
   281   278   281      1
   282   278   282      1
   283   278   283      1
   284   283   284      1
   285   283   285      1
   286   283   286      1
   287   284   287      1
   288   284   288      1
   289   284   289      1
   290   289   290      1
   291   289   291      1
   292   289   292      1
   293   290   293      1
   294   290   294      1
   295   290   295      1
   296   295   296      1
   297   295   297      1
   298   295   298      1
   299   296   299      1
   300   296   300      1
   301   296   301      H
