###
### Created by PolyChef-cpp17 on Thu Feb 27 19:40:30 2025
###

@<TRIPOS>MOLECULE
NO_INFO
140 139 1 0 0
SMALL
USER_CHARGES


@<TRIPOS>ATOM
      1 C          89.2798  191.7487  -39.3449 C.3       0        0    0.0000
      2 C          87.8706  191.5882  -38.7641 C.3       0        0    0.0000
      3 H          89.9271  190.9366  -38.9913 H         0        0    0.0000
      4 H          89.7280  192.6855  -38.9913 H         0        0    0.0000
      5 H          87.3717  192.5639  -38.7123 H         0        0    0.0000
      6 H          87.2615  190.9575  -39.4235 H         0        0    0.0000
      7 C          87.8874  190.9527  -37.3312 C.3       1        0    0.0000
      8 C          89.1657  191.2961  -36.5585 C.3       1        0    0.0000
      9 H          87.0076  191.3042  -36.7780 H         1        0    0.0000
     10 H          87.7859  189.8644  -37.4258 H         1        0    0.0000
     11 H          90.0455  191.1217  -37.1902 H         1        0    0.0000
     12 H          89.1722  192.3614  -36.2965 H         1        0    0.0000
     13 C          89.3112  190.4520  -35.2455 C.3       2        0    0.0000
     14 C          90.2021  191.1423  -34.2069 C.3       2        0    0.0000
     15 H          88.3128  190.2749  -34.8266 H         2        0    0.0000
     16 H          89.7244  189.4685  -35.5014 H         2        0    0.0000
     17 H          91.2580  191.0292  -34.4823 H         2        0    0.0000
     18 H          89.9946  192.2194  -34.1897 H         2        0    0.0000
     19 C          89.9913  190.5641  -32.7651 C.3       3        0    0.0000
     20 C          90.6080  191.4590  -31.6845 C.3       3        0    0.0000
     21 H          88.9156  190.4447  -32.5858 H         3        0    0.0000
     22 H          90.4317  189.5604  -32.7187 H         3        0    0.0000
     23 H          91.6972  191.5023  -31.8084 H         3        0    0.0000
     24 H          90.2379  192.4863  -31.7905 H         3        0    0.0000
     25 C          90.2840  190.9520  -30.2369 C.3       4        0    0.0000
     26 C          90.8823  191.8592  -29.1562 C.3       4        0    0.0000
     27 H          89.1949  190.8935  -30.1183 H         4        0    0.0000
     28 H          90.6683  189.9305  -30.1257 H         4        0    0.0000
     29 H          91.9719  191.9134  -29.2715 H         4        0    0.0000
     30 H          90.5021  192.8819  -29.2707 H         4        0    0.0000
     31 C          90.5517  191.3564  -27.7086 C.3       5        0    0.0000
     32 C          91.1465  192.2659  -26.6279 C.3       5        0    0.0000
     33 H          89.4621  191.2993  -27.5944 H         5        0    0.0000
     34 H          90.9346  190.3348  -27.5931 H         5        0    0.0000
     35 H          92.2362  192.3226  -26.7418 H         5        0    0.0000
     36 H          90.7641  193.2876  -26.7438 H         5        0    0.0000
     37 C          90.8153  191.7636  -25.1803 C.3       6        0    0.0000
     38 C          91.4185  192.6675  -24.0996 C.3       6        0    0.0000
     39 H          89.7255  191.7140  -25.0640 H         6        0    0.0000
     40 H          91.1912  190.7392  -25.0668 H         6        0    0.0000
     41 H          92.5082  192.7178  -24.2165 H         6        0    0.0000
     42 H          91.0419  193.6917  -24.2125 H         6        0    0.0000
     43 C          91.0884  192.1644  -22.6520 C.3       7        0    0.0000
     44 C          91.1448  193.2939  -21.6176 C.3       7        0    0.0000
     45 H          90.0912  191.7070  -22.6555 H         7        0    0.0000
     46 H          91.7976  191.3719  -22.3827 H         7        0    0.0000
     47 H          92.1638  193.6951  -21.5539 H         7        0    0.0000
     48 H          90.4986  194.1234  -21.9307 H         7        0    0.0000
     49 C          90.6996  192.8169  -20.1922 C.3       8        0    0.0000
     50 C          91.7252  193.1782  -19.1121 C.3       8        0    0.0000
     51 H          89.7286  193.2692  -19.9552 H         8        0    0.0000
     52 H          90.5441  191.7312  -20.2152 H         8        0    0.0000
     53 H          92.7427  193.0514  -19.5022 H         8        0    0.0000
     54 H          91.6234  194.2348  -18.8351 H         8        0    0.0000
     55 C          91.5650  192.3002  -17.8233 C.3       9        0    0.0000
     56 C          91.2843  193.1454  -16.5759 C.3       9        0    0.0000
     57 H          90.7503  191.5831  -17.9830 H         9        0    0.0000
     58 H          92.4796  191.7114  -17.6807 H         9        0    0.0000
     59 H          92.2134  193.6040  -16.2154 H         9        0    0.0000
     60 H          90.6026  193.9682  -16.8247 H         9        0    0.0000
     61 C          90.6543  192.3006  -15.4154 C.3      10        0    0.0000
     62 C          91.1138  192.7785  -14.0335 C.3      10        0    0.0000
     63 H          89.5613  192.3583  -15.4891 H        10        0    0.0000
     64 H          90.9245  191.2469  -15.5580 H        10        0    0.0000
     65 H          92.2061  192.8781  -14.0139 H        10        0    0.0000
     66 H          90.7030  193.7739  -13.8239 H        10        0    0.0000
     67 C          90.6750  191.7998  -12.8902 C.3      11        0    0.0000
     68 C          90.9534  192.3730  -11.4963 C.3      11        0    0.0000
     69 H          89.6052  191.5835  -13.0012 H        11        0    0.0000
     70 H          91.2040  190.8472  -13.0178 H        11        0    0.0000
     71 H          92.0285  192.5521  -11.3711 H        11        0    0.0000
     72 H          90.4569  193.3447  -11.3830 H        11        0    0.0000
     73 C          90.4636  191.4189  -10.3529 C.3      12        0    0.0000
     74 C          90.7474  191.9894   -8.9590 C.3      12        0    0.0000
     75 H          89.3877  191.2433  -10.4756 H        12        0    0.0000
     76 H          90.9568  190.4459  -10.4687 H        12        0    0.0000
     77 H          91.8230  192.1674   -8.8372 H        12        0    0.0000
     78 H          90.2520  192.9613   -8.8422 H        12        0    0.0000
     79 C          90.2607  191.0337   -7.8156 C.3      13        0    0.0000
     80 C          90.5480  191.6023   -6.4216 C.3      13        0    0.0000
     81 H          89.1845  190.8579   -7.9357 H        13        0    0.0000
     82 H          90.7540  190.0609   -7.9340 H        13        0    0.0000
     83 H          91.6241  191.7795   -6.3021 H        13        0    0.0000
     84 H          90.0536  192.5744   -6.3027 H        13        0    0.0000
     85 C          90.0634  190.6456   -5.2783 C.3      14        0    0.0000
     86 C          90.3520  191.2135   -3.8843 C.3      14        0    0.0000
     87 H          88.9871  190.4693   -5.3972 H        14        0    0.0000
     88 H          90.5570  189.6732   -5.3979 H        14        0    0.0000
     89 H          91.4278  191.3939   -3.7670 H        14        0    0.0000
     90 H          89.8548  192.1839   -3.7631 H        14        0    0.0000
     91 C          89.8729  190.2540   -2.7409 C.3      15        0    0.0000
     92 C          90.1532  190.8262   -1.3470 C.3      15        0    0.0000
     93 H          88.7985  190.0683   -2.8623 H        15        0    0.0000
     94 H          90.3752  189.2858   -2.8581 H        15        0    0.0000
     95 H          91.2266  191.0188   -1.2283 H        15        0    0.0000
     96 H          89.6448  191.7910   -1.2272 H        15        0    0.0000
     97 C          89.6833  189.8621   -0.2036 C.3      16        0    0.0000
     98 C          89.8144  190.4995    1.1841 C.3      16        0    0.0000
     99 H          88.6407  189.5754   -0.3890 H        16        0    0.0000
    100 H          90.2768  188.9407   -0.2519 H        16        0    0.0000
    101 H          88.8199  190.7081    1.5976 H        16        0    0.0000
    102 H          90.3024  189.8005    1.8745 H        16        0    0.0000
    103 C          90.6374  191.8333    1.1499 C.3      17        0    0.0000
    104 C          90.5596  192.5979    2.4759 C.3      17        0    0.0000
    105 H          91.6822  191.5981    0.9120 H        17        0    0.0000
    106 H          90.2614  192.4599    0.3317 H        17        0    0.0000
    107 H          89.6825  192.2708    3.0479 H        17        0    0.0000
    108 H          91.4392  192.3732    3.0918 H        17        0    0.0000
    109 C          90.4744  194.1488    2.2632 C.3      18        0    0.0000
    110 C          90.3716  194.9119    3.5884 C.3      18        0    0.0000
    111 H          91.3606  194.4786    1.7070 H        18        0    0.0000
    112 H          89.6053  194.3720    1.6322 H        18        0    0.0000
    113 H          90.5003  195.9874    3.4141 H        18        0    0.0000
    114 H          89.3723  194.7804    4.0217 H        18        0    0.0000
    115 C          91.4411  194.4376    4.6317 C.3      19        0    0.0000
    116 C          91.1950  195.0271    6.0249 C.3      19        0    0.0000
    117 H          91.4270  193.3416    4.6792 H        19        0    0.0000
    118 H          92.4372  194.7246    4.2724 H        19        0    0.0000
    119 H          90.8057  194.2528    6.6976 H        19        0    0.0000
    120 H          92.1407  195.3748    6.4587 H        19        0    0.0000
    121 C          90.1833  196.2241    5.9931 C.3      20        0    0.0000
    122 C          89.9486  196.8234    7.3841 C.3      20        0    0.0000
    123 H          90.5672  196.9936    5.3119 H        20        0    0.0000
    124 H          89.2339  195.8736    5.5696 H        20        0    0.0000
    125 H          89.3619  197.7467    7.3018 H        20        0    0.0000
    126 H          89.3605  196.1301    7.9981 H        20        0    0.0000
    127 C          91.2913  197.1426    8.1277 C.3      21        0    0.0000
    128 C          91.0734  197.4519    9.6129 C.3      21        0    0.0000
    129 H          91.9688  196.2868    8.0172 H        21        0    0.0000
    130 H          91.7756  197.9937    7.6333 H        21        0    0.0000
    131 H          92.0354  197.6536   10.1002 H        21        0    0.0000
    132 H          90.4679  198.3601    9.7231 H        21        0    0.0000
    133 C          90.3620  196.2758   10.3666 C.3      22        0    0.0000
    134 C          90.0871  196.6100   11.8369 C.3      22        0    0.0000
    135 H          89.4217  196.0432    9.8515 H        22        0    0.0000
    136 H          90.9901  195.3791   10.2958 H        22        0    0.0000
    137 H          91.0273  196.8426   12.3520 H        22        0    0.0000
    138 H          89.4589  197.5066   11.9077 H        22        0    0.0000
    139 H          89.5924  195.7922   12.3609 H        22        0    0.0000
    140 H          89.2798  191.7487  -40.4349 H         0        0    0.0000
@<TRIPOS>BOND
     1     1     2      1
     2     1     3      1
     3     1     4      1
     4     1   140      H
     5     2     5      1
     6     2     6      1
     7     2     7      1
     8     7     8      1
     9     7     9      1
    10     7    10      1
    11     8    11      1
    12     8    12      1
    13     8    13      1
    14    13    14      1
    15    13    15      1
    16    13    16      1
    17    14    17      1
    18    14    18      1
    19    14    19      1
    20    19    20      1
    21    19    21      1
    22    19    22      1
    23    20    23      1
    24    20    24      1
    25    20    25      1
    26    25    26      1
    27    25    27      1
    28    25    28      1
    29    26    29      1
    30    26    30      1
    31    26    31      1
    32    31    32      1
    33    31    33      1
    34    31    34      1
    35    32    35      1
    36    32    36      1
    37    32    37      1
    38    37    38      1
    39    37    39      1
    40    37    40      1
    41    38    41      1
    42    38    42      1
    43    38    43      1
    44    43    44      1
    45    43    45      1
    46    43    46      1
    47    44    47      1
    48    44    48      1
    49    44    49      1
    50    49    50      1
    51    49    51      1
    52    49    52      1
    53    50    53      1
    54    50    54      1
    55    50    55      1
    56    55    56      1
    57    55    57      1
    58    55    58      1
    59    56    59      1
    60    56    60      1
    61    56    61      1
    62    61    62      1
    63    61    63      1
    64    61    64      1
    65    62    65      1
    66    62    66      1
    67    62    67      1
    68    67    68      1
    69    67    69      1
    70    67    70      1
    71    68    71      1
    72    68    72      1
    73    68    73      1
    74    73    74      1
    75    73    75      1
    76    73    76      1
    77    74    77      1
    78    74    78      1
    79    74    79      1
    80    79    80      1
    81    79    81      1
    82    79    82      1
    83    80    83      1
    84    80    84      1
    85    80    85      1
    86    85    86      1
    87    85    87      1
    88    85    88      1
    89    86    89      1
    90    86    90      1
    91    86    91      1
    92    91    92      1
    93    91    93      1
    94    91    94      1
    95    92    95      1
    96    92    96      1
    97    92    97      1
    98    97    98      1
    99    97    99      1
   100    97   100      1
   101    98   101      1
   102    98   102      1
   103    98   103      1
   104   103   104      1
   105   103   105      1
   106   103   106      1
   107   104   107      1
   108   104   108      1
   109   104   109      1
   110   109   110      1
   111   109   111      1
   112   109   112      1
   113   110   113      1
   114   110   114      1
   115   110   115      1
   116   115   116      1
   117   115   117      1
   118   115   118      1
   119   116   119      1
   120   116   120      1
   121   116   121      1
   122   121   122      1
   123   121   123      1
   124   121   124      1
   125   122   125      1
   126   122   126      1
   127   122   127      1
   128   127   128      1
   129   127   129      1
   130   127   130      1
   131   128   131      1
   132   128   132      1
   133   128   133      1
   134   133   134      1
   135   133   135      1
   136   133   136      1
   137   134   137      1
   138   134   138      1
   139   134   139      H
