###
### Created by PolyChef-cpp17 on Thu Feb 27 19:40:30 2025
###

@<TRIPOS>MOLECULE
NO_INFO
506 505 1 0 0
SMALL
USER_CHARGES


@<TRIPOS>ATOM
      1 C         169.2798   18.5487  -39.3449 C.3       0        0    0.0000
      2 C         167.8706   18.3882  -38.7641 C.3       0        0    0.0000
      3 H         169.9271   17.7366  -38.9913 H         0        0    0.0000
      4 H         169.7280   19.4855  -38.9913 H         0        0    0.0000
      5 H         167.3721   19.3640  -38.7112 H         0        0    0.0000
      6 H         167.2611   17.7585  -39.4241 H         0        0    0.0000
      7 C         167.8873   17.7511  -37.3319 C.3       1        0    0.0000
      8 C         169.1652   18.0944  -36.5584 C.3       1        0    0.0000
      9 H         167.0072   18.1015  -36.7786 H         1        0    0.0000
     10 H         167.7865   16.6629  -37.4277 H         1        0    0.0000
     11 H         170.0452   17.9221  -37.1904 H         1        0    0.0000
     12 H         169.1705   19.1592  -36.2944 H         1        0    0.0000
     13 C         169.3114   17.2480  -35.2470 C.3       2        0    0.0000
     14 C         170.2016   17.9372  -34.2070 C.3       2        0    0.0000
     15 H         168.3132   17.0691  -34.8285 H         2        0    0.0000
     16 H         169.7256   16.2653  -35.5047 H         2        0    0.0000
     17 H         171.2577   17.8232  -34.4811 H         2        0    0.0000
     18 H         169.9951   19.0145  -34.1899 H         2        0    0.0000
     19 C         169.9883   17.3588  -32.7657 C.3       3        0    0.0000
     20 C         170.6060   18.2520  -31.6841 C.3       3        0    0.0000
     21 H         168.9122   17.2416  -32.5873 H         3        0    0.0000
     22 H         170.4266   16.3542  -32.7194 H         3        0    0.0000
     23 H         171.6953   18.2940  -31.8079 H         3        0    0.0000
     24 H         170.2372   19.2798  -31.7892 H         3        0    0.0000
     25 C         170.2812   17.7440  -30.2371 C.3       4        0    0.0000
     26 C         170.8763   18.6522  -29.1554 C.3       4        0    0.0000
     27 H         169.1921   17.6832  -30.1199 H         4        0    0.0000
     28 H         170.6675   16.7233  -30.1257 H         4        0    0.0000
     29 H         171.9658   18.7100  -29.2703 H         4        0    0.0000
     30 H         170.4928   19.6737  -29.2691 H         4        0    0.0000
     31 C         170.5470   18.1470  -27.7084 C.3       5        0    0.0000
     32 C         171.1286   19.0639  -26.6267 C.3       5        0    0.0000
     33 H         169.4577   18.0780  -27.5973 H         5        0    0.0000
     34 H         170.9407   17.1298  -27.5908 H         5        0    0.0000
     35 H         172.2178   19.1325  -26.7375 H         5        0    0.0000
     36 H         170.7352   20.0813  -26.7446 H         5        0    0.0000
     37 C         170.7986   18.5592  -25.1797 C.3       6        0    0.0000
     38 C         171.3938   19.4673  -24.0979 C.3       6        0    0.0000
     39 H         169.7091   18.5018  -25.0650 H         6        0    0.0000
     40 H         171.1816   17.5375  -25.0656 H         6        0    0.0000
     41 H         172.4832   19.5255  -24.2132 H         6        0    0.0000
     42 H         171.0101   20.4888  -24.2114 H         6        0    0.0000
     43 C         171.0650   18.9619  -22.6509 C.3       7        0    0.0000
     44 C         172.0740   19.4696  -21.6150 C.3       7        0    0.0000
     45 H         170.0532   19.2905  -22.3830 H         7        0    0.0000
     46 H         171.0494   17.8649  -22.6546 H         7        0    0.0000
     47 H         173.0941   19.2119  -21.9257 H         7        0    0.0000
     48 H         172.0307   20.5641  -21.5527 H         7        0    0.0000
     49 C         171.8138   18.8717  -20.1894 C.3       8        0    0.0000
     50 C         171.7310   19.9572  -19.1106 C.3       8        0    0.0000
     51 H         170.8820   18.2932  -20.2134 H         8        0    0.0000
     52 H         172.6177   18.1644  -19.9505 H         8        0    0.0000
     53 H         172.7389   20.2916  -18.8353 H         8        0    0.0000
     54 H         171.2031   20.8361  -19.5009 H         8        0    0.0000
     55 C         170.9945   19.4572  -17.8202 C.3       9        0    0.0000
     56 C         171.8800   19.5513  -16.5727 C.3       9        0    0.0000
     57 H         170.0832   20.0518  -17.6803 H         9        0    0.0000
     58 H         170.6731   18.4200  -17.9759 H         9        0    0.0000
     59 H         172.9085   19.2592  -16.8185 H         9        0    0.0000
     60 H         171.9231   20.5891  -16.2194 H         9        0    0.0000
     61 C         171.3615   18.6416  -15.4061 C.3      10        0    0.0000
     62 C         171.6241   19.2584  -14.0278 C.3      10        0    0.0000
     63 H         170.2866   18.4698  -15.5427 H        10        0    0.0000
     64 H         171.8489   17.6614  -15.4787 H        10        0    0.0000
     65 H         172.7022   19.2828  -13.8259 H        10        0    0.0000
     66 H         171.2765   20.2987  -14.0088 H        10        0    0.0000
     67 C         170.9123   18.4666  -12.8772 C.3      11        0    0.0000
     68 C         171.3263   18.9637  -11.4878 C.3      11        0    0.0000
     69 H         169.8265   18.5608  -13.0024 H        11        0    0.0000
     70 H         171.1502   17.4007  -12.9817 H        11        0    0.0000
     71 H         172.4164   18.9080  -11.3777 H        11        0    0.0000
     72 H         171.0511   20.0189  -11.3683 H        11        0    0.0000
     73 C         170.6593   18.1341  -10.3369 C.3      12        0    0.0000
     74 C         171.0649   18.6379   -8.9474 C.3      12        0    0.0000
     75 H         169.5693   18.1833  -10.4515 H        12        0    0.0000
     76 H         170.9408   17.0800  -10.4519 H        12        0    0.0000
     77 H         172.1547   18.5875   -8.8324 H        12        0    0.0000
     78 H         170.7844   19.6923   -8.8329 H        12        0    0.0000
     79 C         170.3965   17.8093   -7.7966 C.3      13        0    0.0000
     80 C         170.8009   18.3141   -6.4071 C.3      13        0    0.0000
     81 H         169.3067   17.8587   -7.9124 H        13        0    0.0000
     82 H         170.6780   16.7551   -7.9105 H        13        0    0.0000
     83 H         171.8908   18.2658   -6.2918 H        13        0    0.0000
     84 H         170.5185   19.3680   -6.2929 H        13        0    0.0000
     85 C         170.1338   17.4846   -5.2563 C.3      14        0    0.0000
     86 C         170.5384   17.9892   -3.8668 C.3      14        0    0.0000
     87 H         169.0439   17.5331   -5.3715 H        14        0    0.0000
     88 H         170.4160   16.4307   -5.3707 H        14        0    0.0000
     89 H         171.6296   17.9573   -3.7581 H        14        0    0.0000
     90 H         170.2403   19.0381   -3.7460 H        14        0    0.0000
     91 C         169.8909   17.1441   -2.7161 C.3      15        0    0.0000
     92 C         170.2821   17.6590   -1.3266 C.3      15        0    0.0000
     93 H         168.8002   17.1660   -2.8321 H        15        0    0.0000
     94 H         170.1989   16.0974   -2.8299 H        15        0    0.0000
     95 H         171.3719   17.6240   -1.2055 H        15        0    0.0000
     96 H         169.9868   18.7100   -1.2179 H        15        0    0.0000
     97 C         169.6188   16.8262   -0.1759 C.3      16        0    0.0000
     98 C         169.3803   17.6646    1.0847 C.3      16        0    0.0000
     99 H         168.6690   16.4149   -0.5395 H        16        0    0.0000
    100 H         170.2638   15.9702    0.0580 H        16        0    0.0000
    101 H         169.4042   17.0222    1.9737 H        16        0    0.0000
    102 H         170.1855   18.3998    1.2055 H        16        0    0.0000
    103 C         168.0076   18.4206    1.0444 C.3      17        0    0.0000
    104 C         167.7304   19.1908    2.3402 C.3      17        0    0.0000
    105 H         168.0080   19.1091    0.1903 H        17        0    0.0000
    106 H         167.2079   17.6922    0.8614 H        17        0    0.0000
    107 H         168.4448   20.0165    2.4471 H        17        0    0.0000
    108 H         166.7310   19.6417    2.3033 H        17        0    0.0000
    109 C         167.8246   18.2738    3.6081 C.3      18        0    0.0000
    110 C         167.4555   19.0212    4.8943 C.3      18        0    0.0000
    111 H         167.1608   17.4112    3.4707 H        18        0    0.0000
    112 H         168.8448   17.8775    3.6830 H        18        0    0.0000
    113 H         166.5391   18.5989    5.3250 H        18        0    0.0000
    114 H         168.2452   18.8914    5.6446 H        18        0    0.0000
    115 C         167.2385   20.5543    4.6491 C.3      19        0    0.0000
    116 C         166.6015   21.2512    5.8564 C.3      19        0    0.0000
    117 H         168.2063   21.0155    4.4159 H        19        0    0.0000
    118 H         166.6057   20.6845    3.7624 H        19        0    0.0000
    119 H         166.9847   20.8156    6.7875 H        19        0    0.0000
    120 H         166.8789   22.3126    5.8676 H        19        0    0.0000
    121 C         165.0380   21.1376    5.8512 C.3      20        0    0.0000
    122 C         164.3998   21.8520    7.0476 C.3      20        0    0.0000
    123 H         164.6559   21.5596    4.9135 H        20        0    0.0000
    124 H         164.7606   20.0762    5.8551 H        20        0    0.0000
    125 H         163.3094   21.8816    6.9302 H        20        0    0.0000
    126 H         164.6022   21.2944    7.9705 H        20        0    0.0000
    127 C         164.9298   23.3176    7.2163 C.3      21        0    0.0000
    128 C         164.5230   23.9314    8.5605 C.3      21        0    0.0000
    129 H         166.0227   23.3116    7.1208 H        21        0    0.0000
    130 H         164.5450   23.9299    6.3913 H        21        0    0.0000
    131 H         165.3808   23.9416    9.2443 H        21        0    0.0000
    132 H         164.2193   24.9762    8.4204 H        21        0    0.0000
    133 C         163.3457   23.1494    9.2386 C.3      22        0    0.0000
    134 C         162.9109   23.7876   10.5625 C.3      22        0    0.0000
    135 H         162.4984   23.1127    8.5426 H        22        0    0.0000
    136 H         163.6606   22.1120    9.4066 H        22        0    0.0000
    137 H         162.0036   23.2971   10.9365 H        22        0    0.0000
    138 H         163.6862   23.6388   11.3243 H        22        0    0.0000
    139 C         162.6322   25.3235   10.4184 C.3      23        0    0.0000
    140 C         162.2075   25.9637   11.7446 C.3      23        0    0.0000
    141 H         163.5371   25.8128   10.0372 H        23        0    0.0000
    142 H         161.8515   25.4718    9.6621 H        23        0    0.0000
    143 H         163.0690   26.0369   12.4198 H        23        0    0.0000
    144 H         161.8547   26.9880   11.5718 H        23        0    0.0000
    145 C         161.0727   25.1522   12.4595 C.3      24        0    0.0000
    146 C         160.6882   25.7601   13.8129 C.3      24        0    0.0000
    147 H         160.1960   25.1151   11.8011 H        24        0    0.0000
    148 H         161.4095   24.1169   12.5942 H        24        0    0.0000
    149 H         159.7596   25.3053   14.1793 H        24        0    0.0000
    150 H         161.4625   25.5394   14.5580 H        24        0    0.0000
    151 C         160.4926   27.3134   13.7324 C.3      25        0    0.0000
    152 C         160.1616   27.9286   15.0966 C.3      25        0    0.0000
    153 H         161.4074   27.7645   13.3283 H        25        0    0.0000
    154 H         159.6906   27.5322   13.0165 H        25        0    0.0000
    155 H         161.0625   27.9647   15.7216 H        25        0    0.0000
    156 H         159.8243   28.9648   14.9701 H        25        0    0.0000
    157 C         159.0510   27.1250   15.8570 C.3      26        0    0.0000
    158 C         158.6492   27.7949   17.1756 C.3      26        0    0.0000
    159 H         158.1756   27.0264   15.2031 H        26        0    0.0000
    160 H         159.4178   26.1088   16.0477 H        26        0    0.0000
    161 H         157.8062   27.2584   17.6285 H        26        0    0.0000
    162 H         159.4781   27.7417   17.8924 H        26        0    0.0000
    163 C         158.2458   29.2971   16.9801 C.3      27        0    0.0000
    164 C         157.9721   30.0031   18.3126 C.3      27        0    0.0000
    165 H         159.0501   29.8117   16.4400 H        27        0    0.0000
    166 H         157.3562   29.3438   16.3399 H        27        0    0.0000
    167 H         158.9183   30.2925   18.7864 H        27        0    0.0000
    168 H         157.4104   30.9294   18.1391 H        27        0    0.0000
    169 C         157.1639   29.1010   19.3079 C.3      28        0    0.0000
    170 C         156.7933   29.8446   20.5958 C.3      28        0    0.0000
    171 H         156.2565   28.7446   18.8049 H        28        0    0.0000
    172 H         157.7621   28.2126   19.5454 H        28        0    0.0000
    173 H         156.1504   29.2142   21.2225 H        28        0    0.0000
    174 H         157.6965   30.0547   21.1821 H        28        0    0.0000
    175 C         156.0514   31.1956   20.3093 C.3      29        0    0.0000
    176 C         155.7840   31.9943   21.5898 C.3      29        0    0.0000
    177 H         156.6564   31.7907   19.6142 H        29        0    0.0000
    178 H         155.1059   30.9780   19.7973 H        29        0    0.0000
    179 H         156.6979   32.5106   21.9089 H        29        0    0.0000
    180 H         155.0336   32.7714   21.3986 H        29        0    0.0000
    181 C         155.2816   31.0846   22.7635 C.3      30        0    0.0000
    182 C         154.9133   31.8960   24.0105 C.3      30        0    0.0000
    183 H         154.4131   30.5099   22.4185 H        30        0    0.0000
    184 H         156.0650   30.3561   23.0065 H        30        0    0.0000
    185 H         154.4757   31.2381   24.7716 H        30        0    0.0000
    186 H         155.8158   32.3343   24.4542 H        30        0    0.0000
    187 C         153.8970   33.0463   23.6921 C.3      31        0    0.0000
    188 C         153.6416   33.9480   24.9049 C.3      31        0    0.0000
    189 H         154.2865   33.6410   22.8565 H        31        0    0.0000
    190 H         152.9547   32.6009   23.3495 H        31        0    0.0000
    191 H         154.4620   34.6675   25.0180 H        31        0    0.0000
    192 H         152.7272   34.5344   24.7517 H        31        0    0.0000
    193 C         153.5004   33.1296   26.2344 C.3      32        0    0.0000
    194 C         153.1128   34.0156   27.4235 C.3      32        0    0.0000
    195 H         152.7473   32.3452   26.0885 H        32        0    0.0000
    196 H         154.4503   32.6202   26.4387 H        32        0    0.0000
    197 H         152.0947   33.7762   27.7548 H        32        0    0.0000
    198 H         153.7762   33.8151   28.2740 H        32        0    0.0000
    199 C         153.1850   35.5423   27.0752 C.3      33        0    0.0000
    200 C         152.6277   36.4217   28.2000 C.3      33        0    0.0000
    201 H         154.2293   35.8095   26.8713 H        33        0    0.0000
    202 H         152.6274   35.7201   26.1473 H        33        0    0.0000
    203 H         153.2662   36.3451   29.0888 H        33        0    0.0000
    204 H         152.6383   37.4752   27.8942 H        33        0    0.0000
    205 C         151.1632   36.0247   28.5942 C.3      34        0    0.0000
    206 C         150.6577   36.8054   29.8124 C.3      34        0    0.0000
    207 H         150.5053   36.2018   27.7344 H        34        0    0.0000
    208 H         151.1317   34.9473   28.7984 H        34        0    0.0000
    209 H         150.5471   37.8672   29.5593 H        34        0    0.0000
    210 H         149.6631   36.4456   30.1035 H        34        0    0.0000
    211 C         151.6214   36.6770   31.0421 C.3      35        0    0.0000
    212 C         151.1281   37.4770   32.2527 C.3      35        0    0.0000
    213 H         151.7184   35.6166   31.3061 H        35        0    0.0000
    214 H         152.6203   37.0205   30.7459 H        35        0    0.0000
    215 H         151.0114   36.8144   33.1193 H        35        0    0.0000
    216 H         151.8720   38.2333   32.5323 H        35        0    0.0000
    217 C         149.7607   38.1916   31.9754 C.3      36        0    0.0000
    218 C         149.2191   38.9109   33.2157 C.3      36        0    0.0000
    219 H         149.8956   38.9069   31.1546 H        36        0    0.0000
    220 H         149.0359   37.4453   31.6269 H        36        0    0.0000
    221 H         149.3059   38.2611   34.0953 H        36        0    0.0000
    222 H         149.8195   39.8051   33.4241 H        36        0    0.0000
    223 C         147.7198   39.3368   33.0482 C.3      37        0    0.0000
    224 C         147.1790   40.0584   34.2875 C.3      37        0    0.0000
    225 H         147.6326   39.9852   32.1675 H        37        0    0.0000
    226 H         147.1190   38.4424   32.8416 H        37        0    0.0000
    227 H         146.1905   40.4836   34.0738 H        37        0    0.0000
    228 H         147.0438   39.3444   35.1094 H        37        0    0.0000
    229 C         148.1304   41.2079   34.7681 C.3      38        0    0.0000
    230 C         147.7661   41.7165   36.1673 C.3      38        0    0.0000
    231 H         149.1635   40.8388   34.7592 H        38        0    0.0000
    232 H         148.0838   42.0312   34.0446 H        38        0    0.0000
    233 H         148.4647   41.3098   36.9090 H        38        0    0.0000
    234 H         147.8640   42.8084   36.2079 H        38        0    0.0000
    235 C         146.3056   41.3244   36.5804 C.3      39        0    0.0000
    236 C         145.9073   41.9153   37.9373 C.3      39        0    0.0000
    237 H         145.6134   41.6691   35.8022 H        39        0    0.0000
    238 H         146.2279   40.2305   36.6090 H        39        0    0.0000
    239 H         145.1156   41.3086   38.3940 H        39        0    0.0000
    240 H         146.7617   41.8876   38.6250 H        39        0    0.0000
    241 C         145.4038   43.3949   37.8163 C.3      40        0    0.0000
    242 C         144.9280   43.9583   39.1598 C.3      40        0    0.0000
    243 H         146.2165   44.0133   37.4156 H        40        0    0.0000
    244 H         144.5887   43.4321   37.0829 H        40        0    0.0000
    245 H         145.7820   44.0922   39.8352 H        40        0    0.0000
    246 H         144.4822   44.9502   39.0151 H        40        0    0.0000
    247 C         143.8752   43.0277   39.8549 C.3      41        0    0.0000
    248 C         143.4914   43.5271   41.2522 C.3      41        0    0.0000
    249 H         142.9831   42.9665   39.2192 H        41        0    0.0000
    250 H         144.2873   42.0130   39.9181 H        41        0    0.0000
    251 H         142.5652   43.0417   41.5839 H        41        0    0.0000
    252 H         144.2682   43.2520   41.9765 H        41        0    0.0000
    253 C         143.2901   45.0812   41.2932 C.3      42        0    0.0000
    254 C         142.9912   45.5911   42.7073 C.3      42        0    0.0000
    255 H         144.1936   45.5652   40.9019 H        42        0    0.0000
    256 H         142.4703   45.3496   40.6154 H        42        0    0.0000
    257 H         143.4785   44.9474   43.4501 H        42        0    0.0000
    258 H         143.4081   46.5972   42.8403 H        42        0    0.0000
    259 C         141.4537   45.6373   43.0096 C.3      43        0    0.0000
    260 C         141.1501   46.2400   44.3857 C.3      43        0    0.0000
    261 H         140.9565   46.2212   42.2252 H        43        0    0.0000
    262 H         141.0505   44.6189   42.9477 H        43        0    0.0000
    263 H         140.0664   46.3473   44.5186 H        43        0    0.0000
    264 H         141.4993   45.5653   45.1771 H        43        0    0.0000
    265 C         141.8245   47.6414   44.5824 C.3      44        0    0.0000
    266 C         141.5101   48.2500   45.9534 C.3      44        0    0.0000
    267 H         142.9092   47.5323   44.4590 H        44        0    0.0000
    268 H         141.4828   48.3132   43.7853 H        44        0    0.0000
    269 H         142.0456   47.7032   46.7394 H        44        0    0.0000
    270 H         141.8640   49.2876   45.9945 H        44        0    0.0000
    271 C         139.9763   48.2261   46.2764 C.3      45        0    0.0000
    272 C         139.6842   48.5936   47.7354 C.3      45        0    0.0000
    273 H         139.4622   48.9228   45.6028 H        45        0    0.0000
    274 H         139.5838   47.2259   46.0547 H        45        0    0.0000
    275 H         138.9148   47.9271   48.1445 H        45        0    0.0000
    276 H         140.5835   48.4494   48.3470 H        45        0    0.0000
    277 C         139.2013   50.0771   47.8891 C.3      46        0    0.0000
    278 C         138.7475   50.3951   49.3181 C.3      46        0    0.0000
    279 H         140.0190   50.7473   47.5961 H        46        0    0.0000
    280 H         138.3795   50.2562   47.1848 H        46        0    0.0000
    281 H         139.6030   50.3500   50.0033 H        46        0    0.0000
    282 H         138.3563   51.4188   49.3695 H        46        0    0.0000
    283 C         137.6419   49.4057   49.8244 C.3      47        0    0.0000
    284 C         137.1233   49.7780   51.2177 C.3      47        0    0.0000
    285 H         136.8146   49.4012   49.1039 H        47        0    0.0000
    286 H         138.0552   48.3896   49.8359 H        47        0    0.0000
    287 H         136.0643   50.0591   51.1623 H        47        0    0.0000
    288 H         137.1842   48.9102   51.8861 H        47        0    0.0000
    289 C         137.9280   50.9634   51.8540 C.3      48        0    0.0000
    290 C         137.2112   51.5671   53.0668 C.3      48        0    0.0000
    291 H         138.9209   50.5999   52.1464 H        48        0    0.0000
    292 H         138.0871   51.7336   51.0892 H        48        0    0.0000
    293 H         136.7265   50.7746   53.6503 H        48        0    0.0000
    294 H         137.9385   52.0485   53.7323 H        48        0    0.0000
    295 C         136.1292   52.6232   52.6524 C.3      49        0    0.0000
    296 C         135.4326   53.2480   53.8662 C.3      49        0    0.0000
    297 H         136.6100   53.4047   52.0510 H        49        0    0.0000
    298 H         135.3903   52.1365   52.0039 H        49        0    0.0000
    299 H         135.5993   54.3322   53.8787 H        49        0    0.0000
    300 H         134.3483   53.0967   53.7968 H        49        0    0.0000
    301 C         135.9416   52.6430   55.2199 C.3      50        0    0.0000
    302 C         135.2980   53.3179   56.4362 C.3      50        0    0.0000
    303 H         135.7269   51.5672   55.2293 H        50        0    0.0000
    304 H         137.0328   52.7469   55.2656 H        50        0    0.0000
    305 H         135.4929   52.7282   57.3405 H        50        0    0.0000
    306 H         135.7479   54.3048   56.6006 H        50        0    0.0000
    307 C         133.7488   53.4902   56.2694 C.3      51        0    0.0000
    308 C         133.1539   54.4387   57.3161 C.3      51        0    0.0000
    309 H         133.5415   53.8663   55.2599 H        51        0    0.0000
    310 H         133.2735   52.5042   56.3420 H        51        0    0.0000
    311 H         132.9583   55.4201   56.8664 H        51        0    0.0000
    312 H         132.1878   54.0544   57.6661 H        51        0    0.0000
    313 C         134.0998   54.6286   58.5516 C.3      52        0    0.0000
    314 C         133.5143   55.5935   59.5886 C.3      52        0    0.0000
    315 H         134.2831   53.6491   59.0105 H        52        0    0.0000
    316 H         135.0710   54.9983   58.1999 H        52        0    0.0000
    317 H         134.1076   55.5600   60.5108 H        52        0    0.0000
    318 H         133.5687   56.6240   59.2163 H        52        0    0.0000
    319 C         132.0224   55.2594   59.9351 C.3      53        0    0.0000
    320 C         131.3965   56.2996   60.8707 C.3      53        0    0.0000
    321 H         131.4479   55.1983   59.0025 H        53        0    0.0000
    322 H         131.9807   54.2650   60.3966 H        53        0    0.0000
    323 H         131.0940   57.1858   60.2993 H        53        0    0.0000
    324 H         130.4859   55.8940   61.3287 H        53        0    0.0000
    325 C         132.3796   56.7433   62.0083 C.3      54        0    0.0000
    326 C         131.7480   57.7710   62.9538 C.3      54        0    0.0000
    327 H         132.6918   55.8555   62.5721 H        54        0    0.0000
    328 H         133.2852   57.1602   61.5504 H        54        0    0.0000
    329 H         132.4029   57.9399   63.8175 H        54        0    0.0000
    330 H         131.6434   58.7367   62.4440 H        54        0    0.0000
    331 C         130.3389   57.3166   63.4693 C.3      55        0    0.0000
    332 C         129.6250   58.4205   64.2572 C.3      55        0    0.0000
    333 H         129.7287   57.0134   62.6095 H        55        0    0.0000
    334 H         130.4626   56.4259   64.0976 H        55        0    0.0000
    335 H         129.3628   59.2501   63.5890 H        55        0    0.0000
    336 H         128.6830   58.0388   64.6702 H        55        0    0.0000
    337 C         130.5033   58.9754   65.4311 C.3      56        0    0.0000
    338 C         129.7440   59.9871   66.2966 C.3      56        0    0.0000
    339 H         130.8430   58.1336   66.0471 H        56        0    0.0000
    340 H         131.4030   59.4410   65.0101 H        56        0    0.0000
    341 H         130.3611   60.2882   67.1523 H        56        0    0.0000
    342 H         129.5400   60.8976   65.7195 H        56        0    0.0000
    343 C         128.3867   59.4122   66.8300 C.3      57        0    0.0000
    344 C         127.5638   60.4661   67.5791 C.3      57        0    0.0000
    345 H         127.8118   59.0188   65.9824 H        57        0    0.0000
    346 H         128.5978   58.5613   67.4894 H        57        0    0.0000
    347 H         127.0329   61.1068   66.8642 H        57        0    0.0000
    348 H         126.7976   59.9778   68.1940 H        57        0    0.0000
    349 C         128.4533   61.3682   68.5024 C.3      58        0    0.0000
    350 C         127.6174   62.3295   69.3547 C.3      58        0    0.0000
    351 H         129.0599   60.7224   69.1493 H        58        0    0.0000
    352 H         129.1539   61.9335   67.8755 H        58        0    0.0000
    353 H         128.2673   62.8846   70.0424 H        58        0    0.0000
    354 H         127.1290   63.0734   68.7131 H        58        0    0.0000
    355 C         126.5197   61.5829   70.1885 C.3      59        0    0.0000
    356 C         125.6319   62.5509   70.9784 C.3      59        0    0.0000
    357 H         125.9062   60.9810   69.5067 H        59        0    0.0000
    358 H         127.0120   60.8806   70.8725 H        59        0    0.0000
    359 H         124.9128   63.0354   70.3064 H        59        0    0.0000
    360 H         125.0448   61.9999   71.7236 H        59        0    0.0000
    361 C         126.4653   63.6587   71.7103 C.3      60        0    0.0000
    362 C         125.5839   64.5864   72.5538 C.3      60        0    0.0000
    363 H         127.2171   63.1740   72.3454 H        60        0    0.0000
    364 H         127.0148   64.2411   70.9604 H        60        0    0.0000
    365 H         126.2104   65.2688   73.1414 H        60        0    0.0000
    366 H         124.9633   65.2122   71.9005 H        60        0    0.0000
    367 C         124.6489   63.7922   73.5298 C.3      61        0    0.0000
    368 C         123.6980   64.7137   74.3016 C.3      61        0    0.0000
    369 H         124.0743   63.0589   72.9505 H        61        0    0.0000
    370 H         125.2715   63.2222   74.2304 H        61        0    0.0000
    371 H         122.8684   65.0250   73.6549 H        61        0    0.0000
    372 H         123.2533   64.1730   75.1463 H        61        0    0.0000
    373 C         124.4221   65.9932   74.8457 C.3      62        0    0.0000
    374 C         123.4967   66.8640   75.7028 C.3      62        0    0.0000
    375 H         125.2959   65.6827   75.4319 H        62        0    0.0000
    376 H         124.8028   66.5726   73.9955 H        62        0    0.0000
    377 H         124.0635   67.6924   76.1457 H        62        0    0.0000
    378 H         122.7175   67.3150   75.0760 H        62        0    0.0000
    379 C         122.8111   66.0489   76.8531 C.3      63        0    0.0000
    380 C         121.8210   66.8990   77.6569 C.3      63        0    0.0000
    381 H         122.2962   65.1846   76.4156 H        63        0    0.0000
    382 H         123.5889   65.6499   77.5158 H        63        0    0.0000
    383 H         121.1292   67.4132   76.9783 H        63        0    0.0000
    384 H         121.2097   66.2555   78.3017 H        63        0    0.0000
    385 C         122.5426   67.9679   78.5480 C.3      64        0    0.0000
    386 C         121.5569   68.7746   79.4004 C.3      64        0    0.0000
    387 H         123.2686   67.4582   79.1936 H        64        0    0.0000
    388 H         123.1164   68.6406   77.8986 H        64        0    0.0000
    389 H         122.1041   69.4232   80.0957 H        64        0    0.0000
    390 H         120.9576   69.4337   78.7601 H        64        0    0.0000
    391 C         120.5907   67.8538   80.2227 C.3      65        0    0.0000
    392 C         119.6180   68.6602   81.0902 C.3      65        0    0.0000
    393 H         120.0330   67.2153   79.5264 H        65        0    0.0000
    394 H         121.1903   67.1848   80.8523 H        65        0    0.0000
    395 H         119.3511   69.5968   80.5850 H        65        0    0.0000
    396 H         118.6849   68.1003   81.2291 H        65        0    0.0000
    397 C         120.2184   68.9990   82.4981 C.3      66        0    0.0000
    398 C         119.1307   69.2638   83.5449 C.3      66        0    0.0000
    399 H         120.8558   68.1663   82.8204 H        66        0    0.0000
    400 H         120.8703   69.8761   82.4028 H        66        0    0.0000
    401 H         118.6357   70.2211   83.3392 H        66        0    0.0000
    402 H         118.3557   68.4895   83.4864 H        66        0    0.0000
    403 C         119.7047   69.2950   85.0034 C.3      67        0    0.0000
    404 C         118.5985   69.3691   86.0615 C.3      67        0    0.0000
    405 H         120.3171   68.3986   85.1615 H        67        0    0.0000
    406 H         120.3766   70.1567   85.1006 H        67        0    0.0000
    407 H         118.0154   70.2894   85.9323 H        67        0    0.0000
    408 H         117.8997   68.5330   85.9345 H        67        0    0.0000
    409 C         119.1692   69.3333   87.5212 C.3      68        0    0.0000
    410 C         118.0628   69.4057   88.5793 C.3      68        0    0.0000
    411 H         119.7533   68.4137   87.6499 H        68        0    0.0000
    412 H         119.8670   70.1702   87.6486 H        68        0    0.0000
    413 H         117.4811   70.3272   88.4530 H        68        0    0.0000
    414 H         117.3629   68.5710   88.4494 H        68        0    0.0000
    415 C         118.6331   69.3643   90.0390 C.3      69        0    0.0000
    416 C         117.5308   69.4852   91.0970 C.3      69        0    0.0000
    417 H         119.1853   68.4264   90.1764 H        69        0    0.0000
    418 H         119.3595   70.1778   90.1579 H        69        0    0.0000
    419 H         116.9743   70.4199   90.9553 H        69        0    0.0000
    420 H         116.8082   68.6678   90.9823 H        69        0    0.0000
    421 C         118.1021   69.4535   92.5564 C.3      70        0    0.0000
    422 C         117.0998   68.8730   93.5601 C.3      70        0    0.0000
    423 H         119.0257   68.8614   92.5619 H        70        0    0.0000
    424 H         118.3801   70.4735   92.8496 H        70        0    0.0000
    425 H         116.2231   69.5279   93.6378 H        70        0    0.0000
    426 H         116.7357   67.8998   93.2081 H        70        0    0.0000
    427 C         117.7240   68.6931   94.9867 C.3      71        0    0.0000
    428 C         116.8821   69.3635   96.0779 C.3      71        0    0.0000
    429 H         117.8257   67.6209   95.1956 H        71        0    0.0000
    430 H         118.7383   69.1111   94.9842 H        71        0    0.0000
    431 H         116.4564   70.3018   95.7014 H        71        0    0.0000
    432 H         116.0358   68.7200   96.3487 H        71        0    0.0000
    433 C         117.7173   69.6696   97.3688 C.3      72        0    0.0000
    434 C         117.1257   69.0023   98.6152 C.3      72        0    0.0000
    435 H         118.7479   69.3277   97.2124 H        72        0    0.0000
    436 H         117.7639   70.7565   97.5102 H        72        0    0.0000
    437 H         116.2451   69.5596   98.9582 H        72        0    0.0000
    438 H         116.7823   67.9891   98.3724 H        72        0    0.0000
    439 C         118.1592   68.9173   99.7908 C.3      73        0    0.0000
    440 C         117.4888   69.0395  101.1636 C.3      73        0    0.0000
    441 H         118.6988   67.9647   99.7191 H        73        0    0.0000
    442 H         118.9049   69.7120   99.6642 H        73        0    0.0000
    443 H         116.8236   69.9117  101.1810 H        73        0    0.0000
    444 H         116.8610   68.1605  101.3553 H        73        0    0.0000
    445 C         118.5332   69.1774  102.3246 C.3      74        0    0.0000
    446 C         117.8765   69.1089  103.7078 C.3      74        0    0.0000
    447 H         119.2814   68.3814  102.2236 H        74        0    0.0000
    448 H         119.0674   70.1285  102.2086 H        74        0    0.0000
    449 H         117.1556   69.9278  103.8229 H        74        0    0.0000
    450 H         117.3106   68.1745  103.8097 H        74        0    0.0000
    451 C         118.9265   69.1929  104.8688 C.3      75        0    0.0000
    452 C         118.2690   69.1336  106.2520 C.3      75        0    0.0000
    453 H         119.6433   68.3699  104.7575 H        75        0    0.0000
    454 H         119.4968   70.1240  104.7630 H        75        0    0.0000
    455 H         117.5514   69.9560  106.3629 H        75        0    0.0000
    456 H         117.6993   68.2021  106.3581 H        75        0    0.0000
    457 C         119.3188   69.2190  107.4130 C.3      76        0    0.0000
    458 C         118.6606   69.1681  108.7962 C.3      76        0    0.0000
    459 H         120.0328   68.3930  107.3055 H        76        0    0.0000
    460 H         119.8925   70.1476  107.3034 H        76        0    0.0000
    461 H         117.9455   69.9931  108.9031 H        76        0    0.0000
    462 H         118.0882   68.2387  108.9064 H        76        0    0.0000
    463 C         119.7104   69.2556  109.9572 C.3      77        0    0.0000
    464 C         119.0522   69.2042  111.3404 C.3      77        0    0.0000
    465 H         120.4257   68.4308  109.8501 H        77        0    0.0000
    466 H         120.2826   70.1851  109.8472 H        77        0    0.0000
    467 H         118.3391   70.0308  111.4486 H        77        0    0.0000
    468 H         118.4775   68.2760  111.4493 H        77        0    0.0000
    469 C         120.1022   69.2875  112.5014 C.3      78        0    0.0000
    470 C         119.4441   69.2364  113.8846 C.3      78        0    0.0000
    471 H         120.8152   68.4607  112.3933 H        78        0    0.0000
    472 H         120.6771   70.2155  112.3924 H        78        0    0.0000
    473 H         118.7291   70.0616  113.9917 H        78        0    0.0000
    474 H         118.8714   68.3071  113.9946 H        78        0    0.0000
    475 C         120.4938   69.3234  115.0456 C.3      79        0    0.0000
    476 C         119.8361   69.2663  116.4288 C.3      79        0    0.0000
    477 H         121.2113   68.5008  114.9360 H        79        0    0.0000
    478 H         121.0635   70.2548  114.9381 H        79        0    0.0000
    479 H         119.1198   70.0899  116.5390 H        79        0    0.0000
    480 H         119.2651   68.3357  116.5357 H        79        0    0.0000
    481 C         120.8861   69.3511  117.5898 C.3      80        0    0.0000
    482 C         120.2281   69.2982  118.9730 C.3      80        0    0.0000
    483 H         121.6006   68.5258  117.4814 H        80        0    0.0000
    484 H         121.4591   70.2803  117.4812 H        80        0    0.0000
    485 H         120.9945   69.1887  119.7503 H        80        0    0.0000
    486 H         119.7050   70.2407  119.1771 H        80        0    0.0000
    487 C         119.2068   68.1157  119.1003 C.3      81        0    0.0000
    488 C         118.5451   68.0659  120.4818 C.3      81        0    0.0000
    489 H         118.4424   68.2232  118.3207 H        81        0    0.0000
    490 H         119.7307   67.1729  118.8999 H        81        0    0.0000
    491 H         117.4564   68.1557  120.3809 H        81        0    0.0000
    492 H         118.7384   67.0960  120.9567 H        81        0    0.0000
    493 C         119.0604   69.2039  121.4288 C.3      82        0    0.0000
    494 C         118.6465   68.9779  122.8871 C.3      82        0    0.0000
    495 H         120.1534   69.2597  121.3524 H        82        0    0.0000
    496 H         118.6701   70.1649  121.0716 H        82        0    0.0000
    497 H         118.4069   69.9368  123.3631 H        82        0    0.0000
    498 H         117.7350   68.3688  122.9294 H        82        0    0.0000
    499 C         119.7683   68.2668  123.7198 C.3      83        0    0.0000
    500 C         119.8894   68.8370  125.1373 C.3      83        0    0.0000
    501 H         119.5490   67.1928  123.7638 H        83        0    0.0000
    502 H         120.7228   68.3719  123.1893 H        83        0    0.0000
    503 H         120.1087   69.9110  125.0932 H        83        0    0.0000
    504 H         118.9349   68.7319  125.6678 H        83        0    0.0000
    505 H         120.6694   68.3426  125.7162 H        83        0    0.0000
    506 H         169.2798   18.5487  -40.4349 H         0        0    0.0000
@<TRIPOS>BOND
     1     1     2      1
     2     1     3      1
     3     1     4      1
     4     1   506      H
     5     2     5      1
     6     2     6      1
     7     2     7      1
     8     7     8      1
     9     7     9      1
    10     7    10      1
    11     8    11      1
    12     8    12      1
    13     8    13      1
    14    13    14      1
    15    13    15      1
    16    13    16      1
    17    14    17      1
    18    14    18      1
    19    14    19      1
    20    19    20      1
    21    19    21      1
    22    19    22      1
    23    20    23      1
    24    20    24      1
    25    20    25      1
    26    25    26      1
    27    25    27      1
    28    25    28      1
    29    26    29      1
    30    26    30      1
    31    26    31      1
    32    31    32      1
    33    31    33      1
    34    31    34      1
    35    32    35      1
    36    32    36      1
    37    32    37      1
    38    37    38      1
    39    37    39      1
    40    37    40      1
    41    38    41      1
    42    38    42      1
    43    38    43      1
    44    43    44      1
    45    43    45      1
    46    43    46      1
    47    44    47      1
    48    44    48      1
    49    44    49      1
    50    49    50      1
    51    49    51      1
    52    49    52      1
    53    50    53      1
    54    50    54      1
    55    50    55      1
    56    55    56      1
    57    55    57      1
    58    55    58      1
    59    56    59      1
    60    56    60      1
    61    56    61      1
    62    61    62      1
    63    61    63      1
    64    61    64      1
    65    62    65      1
    66    62    66      1
    67    62    67      1
    68    67    68      1
    69    67    69      1
    70    67    70      1
    71    68    71      1
    72    68    72      1
    73    68    73      1
    74    73    74      1
    75    73    75      1
    76    73    76      1
    77    74    77      1
    78    74    78      1
    79    74    79      1
    80    79    80      1
    81    79    81      1
    82    79    82      1
    83    80    83      1
    84    80    84      1
    85    80    85      1
    86    85    86      1
    87    85    87      1
    88    85    88      1
    89    86    89      1
    90    86    90      1
    91    86    91      1
    92    91    92      1
    93    91    93      1
    94    91    94      1
    95    92    95      1
    96    92    96      1
    97    92    97      1
    98    97    98      1
    99    97    99      1
   100    97   100      1
   101    98   101      1
   102    98   102      1
   103    98   103      1
   104   103   104      1
   105   103   105      1
   106   103   106      1
   107   104   107      1
   108   104   108      1
   109   104   109      1
   110   109   110      1
   111   109   111      1
   112   109   112      1
   113   110   113      1
   114   110   114      1
   115   110   115      1
   116   115   116      1
   117   115   117      1
   118   115   118      1
   119   116   119      1
   120   116   120      1
   121   116   121      1
   122   121   122      1
   123   121   123      1
   124   121   124      1
   125   122   125      1
   126   122   126      1
   127   122   127      1
   128   127   128      1
   129   127   129      1
   130   127   130      1
   131   128   131      1
   132   128   132      1
   133   128   133      1
   134   133   134      1
   135   133   135      1
   136   133   136      1
   137   134   137      1
   138   134   138      1
   139   134   139      1
   140   139   140      1
   141   139   141      1
   142   139   142      1
   143   140   143      1
   144   140   144      1
   145   140   145      1
   146   145   146      1
   147   145   147      1
   148   145   148      1
   149   146   149      1
   150   146   150      1
   151   146   151      1
   152   151   152      1
   153   151   153      1
   154   151   154      1
   155   152   155      1
   156   152   156      1
   157   152   157      1
   158   157   158      1
   159   157   159      1
   160   157   160      1
   161   158   161      1
   162   158   162      1
   163   158   163      1
   164   163   164      1
   165   163   165      1
   166   163   166      1
   167   164   167      1
   168   164   168      1
   169   164   169      1
   170   169   170      1
   171   169   171      1
   172   169   172      1
   173   170   173      1
   174   170   174      1
   175   170   175      1
   176   175   176      1
   177   175   177      1
   178   175   178      1
   179   176   179      1
   180   176   180      1
   181   176   181      1
   182   181   182      1
   183   181   183      1
   184   181   184      1
   185   182   185      1
   186   182   186      1
   187   182   187      1
   188   187   188      1
   189   187   189      1
   190   187   190      1
   191   188   191      1
   192   188   192      1
   193   188   193      1
   194   193   194      1
   195   193   195      1
   196   193   196      1
   197   194   197      1
   198   194   198      1
   199   194   199      1
   200   199   200      1
   201   199   201      1
   202   199   202      1
   203   200   203      1
   204   200   204      1
   205   200   205      1
   206   205   206      1
   207   205   207      1
   208   205   208      1
   209   206   209      1
   210   206   210      1
   211   206   211      1
   212   211   212      1
   213   211   213      1
   214   211   214      1
   215   212   215      1
   216   212   216      1
   217   212   217      1
   218   217   218      1
   219   217   219      1
   220   217   220      1
   221   218   221      1
   222   218   222      1
   223   218   223      1
   224   223   224      1
   225   223   225      1
   226   223   226      1
   227   224   227      1
   228   224   228      1
   229   224   229      1
   230   229   230      1
   231   229   231      1
   232   229   232      1
   233   230   233      1
   234   230   234      1
   235   230   235      1
   236   235   236      1
   237   235   237      1
   238   235   238      1
   239   236   239      1
   240   236   240      1
   241   236   241      1
   242   241   242      1
   243   241   243      1
   244   241   244      1
   245   242   245      1
   246   242   246      1
   247   242   247      1
   248   247   248      1
   249   247   249      1
   250   247   250      1
   251   248   251      1
   252   248   252      1
   253   248   253      1
   254   253   254      1
   255   253   255      1
   256   253   256      1
   257   254   257      1
   258   254   258      1
   259   254   259      1
   260   259   260      1
   261   259   261      1
   262   259   262      1
   263   260   263      1
   264   260   264      1
   265   260   265      1
   266   265   266      1
   267   265   267      1
   268   265   268      1
   269   266   269      1
   270   266   270      1
   271   266   271      1
   272   271   272      1
   273   271   273      1
   274   271   274      1
   275   272   275      1
   276   272   276      1
   277   272   277      1
   278   277   278      1
   279   277   279      1
   280   277   280      1
   281   278   281      1
   282   278   282      1
   283   278   283      1
   284   283   284      1
   285   283   285      1
   286   283   286      1
   287   284   287      1
   288   284   288      1
   289   284   289      1
   290   289   290      1
   291   289   291      1
   292   289   292      1
   293   290   293      1
   294   290   294      1
   295   290   295      1
   296   295   296      1
   297   295   297      1
   298   295   298      1
   299   296   299      1
   300   296   300      1
   301   296   301      1
   302   301   302      1
   303   301   303      1
   304   301   304      1
   305   302   305      1
   306   302   306      1
   307   302   307      1
   308   307   308      1
   309   307   309      1
   310   307   310      1
   311   308   311      1
   312   308   312      1
   313   308   313      1
   314   313   314      1
   315   313   315      1
   316   313   316      1
   317   314   317      1
   318   314   318      1
   319   314   319      1
   320   319   320      1
   321   319   321      1
   322   319   322      1
   323   320   323      1
   324   320   324      1
   325   320   325      1
   326   325   326      1
   327   325   327      1
   328   325   328      1
   329   326   329      1
   330   326   330      1
   331   326   331      1
   332   331   332      1
   333   331   333      1
   334   331   334      1
   335   332   335      1
   336   332   336      1
   337   332   337      1
   338   337   338      1
   339   337   339      1
   340   337   340      1
   341   338   341      1
   342   338   342      1
   343   338   343      1
   344   343   344      1
   345   343   345      1
   346   343   346      1
   347   344   347      1
   348   344   348      1
   349   344   349      1
   350   349   350      1
   351   349   351      1
   352   349   352      1
   353   350   353      1
   354   350   354      1
   355   350   355      1
   356   355   356      1
   357   355   357      1
   358   355   358      1
   359   356   359      1
   360   356   360      1
   361   356   361      1
   362   361   362      1
   363   361   363      1
   364   361   364      1
   365   362   365      1
   366   362   366      1
   367   362   367      1
   368   367   368      1
   369   367   369      1
   370   367   370      1
   371   368   371      1
   372   368   372      1
   373   368   373      1
   374   373   374      1
   375   373   375      1
   376   373   376      1
   377   374   377      1
   378   374   378      1
   379   374   379      1
   380   379   380      1
   381   379   381      1
   382   379   382      1
   383   380   383      1
   384   380   384      1
   385   380   385      1
   386   385   386      1
   387   385   387      1
   388   385   388      1
   389   386   389      1
   390   386   390      1
   391   386   391      1
   392   391   392      1
   393   391   393      1
   394   391   394      1
   395   392   395      1
   396   392   396      1
   397   392   397      1
   398   397   398      1
   399   397   399      1
   400   397   400      1
   401   398   401      1
   402   398   402      1
   403   398   403      1
   404   403   404      1
   405   403   405      1
   406   403   406      1
   407   404   407      1
   408   404   408      1
   409   404   409      1
   410   409   410      1
   411   409   411      1
   412   409   412      1
   413   410   413      1
   414   410   414      1
   415   410   415      1
   416   415   416      1
   417   415   417      1
   418   415   418      1
   419   416   419      1
   420   416   420      1
   421   416   421      1
   422   421   422      1
   423   421   423      1
   424   421   424      1
   425   422   425      1
   426   422   426      1
   427   422   427      1
   428   427   428      1
   429   427   429      1
   430   427   430      1
   431   428   431      1
   432   428   432      1
   433   428   433      1
   434   433   434      1
   435   433   435      1
   436   433   436      1
   437   434   437      1
   438   434   438      1
   439   434   439      1
   440   439   440      1
   441   439   441      1
   442   439   442      1
   443   440   443      1
   444   440   444      1
   445   440   445      1
   446   445   446      1
   447   445   447      1
   448   445   448      1
   449   446   449      1
   450   446   450      1
   451   446   451      1
   452   451   452      1
   453   451   453      1
   454   451   454      1
   455   452   455      1
   456   452   456      1
   457   452   457      1
   458   457   458      1
   459   457   459      1
   460   457   460      1
   461   458   461      1
   462   458   462      1
   463   458   463      1
   464   463   464      1
   465   463   465      1
   466   463   466      1
   467   464   467      1
   468   464   468      1
   469   464   469      1
   470   469   470      1
   471   469   471      1
   472   469   472      1
   473   470   473      1
   474   470   474      1
   475   470   475      1
   476   475   476      1
   477   475   477      1
   478   475   478      1
   479   476   479      1
   480   476   480      1
   481   476   481      1
   482   481   482      1
   483   481   483      1
   484   481   484      1
   485   482   485      1
   486   482   486      1
   487   482   487      1
   488   487   488      1
   489   487   489      1
   490   487   490      1
   491   488   491      1
   492   488   492      1
   493   488   493      1
   494   493   494      1
   495   493   495      1
   496   493   496      1
   497   494   497      1
   498   494   498      1
   499   494   499      1
   500   499   500      1
   501   499   501      1
   502   499   502      1
   503   500   503      1
   504   500   504      1
   505   500   505      H
