###
### Created by PolyChef-cpp17 on Thu Feb 27 19:40:30 2025
###

@<TRIPOS>MOLECULE
NO_INFO
164 163 1 0 0
SMALL
USER_CHARGES


@<TRIPOS>ATOM
      1 C          99.2798  174.4287  -39.3449 C.3       0        0    0.0000
      2 C          97.8706  174.2682  -38.7641 C.3       0        0    0.0000
      3 H          99.9271  173.6166  -38.9913 H         0        0    0.0000
      4 H          99.7280  175.3655  -38.9913 H         0        0    0.0000
      5 H          97.3720  175.2440  -38.7116 H         0        0    0.0000
      6 H          97.2612  173.6381  -39.4239 H         0        0    0.0000
      7 C          97.8874  173.6317  -37.3316 C.3       1        0    0.0000
      8 C          99.1651  173.9754  -36.5582 C.3       1        0    0.0000
      9 H          97.0071  173.9822  -36.7786 H         1        0    0.0000
     10 H          97.7867  172.5434  -37.4270 H         1        0    0.0000
     11 H         100.0455  173.7966  -37.1879 H         1        0    0.0000
     12 H          99.1735  175.0417  -36.3004 H         1        0    0.0000
     13 C          99.3067  173.1362  -35.2417 C.3       2        0    0.0000
     14 C         100.2090  173.8220  -34.2099 C.3       2        0    0.0000
     15 H          98.3081  172.9719  -34.8181 H         2        0    0.0000
     16 H          99.7084  172.1471  -35.4943 H         2        0    0.0000
     17 H         101.2625  173.6970  -34.4893 H         2        0    0.0000
     18 H         100.0125  174.9012  -34.1966 H         2        0    0.0000
     19 C          99.9985  173.2522  -32.7647 C.3       3        0    0.0000
     20 C         100.6274  174.1465  -31.6905 C.3       3        0    0.0000
     21 H          98.9225  173.1433  -32.5808 H         3        0    0.0000
     22 H         100.4301  172.2448  -32.7154 H         3        0    0.0000
     23 H         101.7166  174.1774  -31.8173 H         3        0    0.0000
     24 H         100.2679  175.1771  -31.8013 H         3        0    0.0000
     25 C         100.3014  173.6509  -30.2394 C.3       4        0    0.0000
     26 C         100.9152  174.5555  -29.1651 C.3       4        0    0.0000
     27 H          99.2121  173.6073  -30.1170 H         4        0    0.0000
     28 H         100.6727  172.6250  -30.1244 H         4        0    0.0000
     29 H         102.0051  174.5945  -29.2840 H         4        0    0.0000
     30 H         100.5484  175.5826  -29.2837 H         4        0    0.0000
     31 C         100.5824  174.0645  -27.7140 C.3       5        0    0.0000
     32 C         101.2034  174.9641  -26.6398 C.3       5        0    0.0000
     33 H          99.4926  174.0315  -27.5931 H         5        0    0.0000
     34 H         100.9436  173.0352  -27.5975 H         5        0    0.0000
     35 H         102.2932  174.9973  -26.7608 H         5        0    0.0000
     36 H         100.8420  175.9934  -26.7562 H         5        0    0.0000
     37 C         100.8709  174.4730  -25.1887 C.3       6        0    0.0000
     38 C         101.4743  175.3846  -24.1144 C.3       6        0    0.0000
     39 H          99.7810  174.4252  -25.0726 H         6        0    0.0000
     40 H         101.2459  173.4492  -25.0672 H         6        0    0.0000
     41 H         102.5643  175.4314  -24.2297 H         6        0    0.0000
     42 H         101.1003  176.4086  -24.2366 H         6        0    0.0000
     43 C         101.1403  174.8945  -22.6633 C.3       7        0    0.0000
     44 C         102.2572  175.2248  -21.6671 C.3       7        0    0.0000
     45 H         100.1997  175.3583  -22.3412 H         7        0    0.0000
     46 H         100.9656  173.8117  -22.6872 H         7        0    0.0000
     47 H         103.2220  174.8736  -22.0537 H         7        0    0.0000
     48 H         102.3434  176.3117  -21.5455 H         7        0    0.0000
     49 C         102.0101  174.5770  -20.2612 C.3       8        0    0.0000
     50 C         102.0631  175.6086  -19.1289 C.3       8        0    0.0000
     51 H         101.0338  174.0768  -20.2690 H         8        0    0.0000
     52 H         102.7627  173.7964  -20.0943 H         8        0    0.0000
     53 H         103.1046  175.7979  -18.8409 H         8        0    0.0000
     54 H         101.6523  176.5660  -19.4728 H         8        0    0.0000
     55 C         101.2654  175.1423  -17.8625 C.3       9        0    0.0000
     56 C         102.1235  175.1700  -16.5928 C.3       9        0    0.0000
     57 H         100.3888  175.7901  -17.7384 H         9        0    0.0000
     58 H         100.8854  174.1281  -18.0376 H         9        0    0.0000
     59 H         103.1221  174.7683  -16.8048 H         9        0    0.0000
     60 H         102.2649  176.2048  -16.2570 H         9        0    0.0000
     61 C         101.4835  174.3427  -15.4251 C.3      10        0    0.0000
     62 C         101.8306  174.9180  -14.0476 C.3      10        0    0.0000
     63 H         100.3951  174.3228  -15.5611 H        10        0    0.0000
     64 H         101.8290  173.3040  -15.4970 H        10        0    0.0000
     65 H         102.9047  174.8072  -13.8534 H        10        0    0.0000
     66 H         101.6155  175.9935  -14.0240 H        10        0    0.0000
     67 C         101.0336  174.2178  -12.8934 C.3      11        0    0.0000
     68 C         101.5079  174.6644  -11.5061 C.3      11        0    0.0000
     69 H          99.9662  174.4399  -13.0155 H        11        0    0.0000
     70 H         101.1432  173.1312  -12.9967 H        11        0    0.0000
     71 H         102.5831  174.4753  -11.3972 H        11        0    0.0000
     72 H         101.3650  175.7459  -11.3898 H        11        0    0.0000
     73 C         100.7457  173.9269  -10.3517 C.3      12        0    0.0000
     74 C         101.2209  174.3725   -8.9644 C.3      12        0    0.0000
     75 H          99.6706  174.1169  -10.4601 H        12        0    0.0000
     76 H         100.8878  172.8454  -10.4686 H        12        0    0.0000
     77 H         102.2954  174.1799   -8.8550 H        12        0    0.0000
     78 H         101.0815  175.4545   -8.8486 H        12        0    0.0000
     79 C         100.4557  173.6381   -7.8101 C.3      13        0    0.0000
     80 C         100.9287  174.0861   -6.4228 C.3      13        0    0.0000
     81 H          99.3811  173.8288   -7.9209 H        13        0    0.0000
     82 H         100.5971  172.5562   -7.9245 H        13        0    0.0000
     83 H         102.0029  173.8932   -6.3112 H        13        0    0.0000
     84 H         100.7894  175.1683   -6.3092 H        13        0    0.0000
     85 C         100.1613  173.3539   -5.2684 C.3      14        0    0.0000
     86 C         100.6340  173.8022   -3.8811 C.3      14        0    0.0000
     87 H          99.0871  173.5465   -5.3802 H        14        0    0.0000
     88 H         100.3009  172.2717   -5.3818 H        14        0    0.0000
     89 H         101.7069  173.6037   -3.7669 H        14        0    0.0000
     90 H         100.5005  174.8855   -3.7701 H        14        0    0.0000
     91 C          99.8602  173.0769   -2.7267 C.3      15        0    0.0000
     92 C         100.3383  173.5195   -1.3394 C.3      15        0    0.0000
     93 H          98.7879  173.2801   -2.8376 H        15        0    0.0000
     94 H          99.9890  171.9934   -2.8410 H        15        0    0.0000
     95 H         101.4143  173.3329   -1.2351 H        15        0    0.0000
     96 H         100.1927  174.6001   -1.2184 H        15        0    0.0000
     97 C          99.5823  172.7754   -0.1851 C.3      16        0    0.0000
     98 C         100.4209  172.6846    1.0945 C.3      16        0    0.0000
     99 H          98.6415  173.3018    0.0182 H        16        0    0.0000
    100 H          99.3123  171.7696   -0.5301 H        16        0    0.0000
    101 H         101.4366  172.3458    0.8554 H        16        0    0.0000
    102 H         100.5192  173.6773    1.5511 H        16        0    0.0000
    103 C          99.7958  171.7044    2.1462 C.3      17        0    0.0000
    104 C         100.8514  170.8105    2.8062 C.3      17        0    0.0000
    105 H          99.2706  172.2924    2.9090 H        17        0    0.0000
    106 H          99.0385  171.0869    1.6476 H        17        0    0.0000
    107 H         101.5995  170.5020    2.0655 H        17        0    0.0000
    108 H         101.3882  171.3716    3.5812 H        17        0    0.0000
    109 C         100.2233  169.5286    3.4541 C.3      18        0    0.0000
    110 C         100.4019  169.4999    4.9760 C.3      18        0    0.0000
    111 H          99.1569  169.4901    3.1997 H        18        0    0.0000
    112 H         100.6867  168.6417    3.0042 H        18        0    0.0000
    113 H         101.4606  169.3616    5.2280 H        18        0    0.0000
    114 H         100.0981  170.4612    5.4086 H        18        0    0.0000
    115 C          99.5684  168.3563    5.6506 C.3      19        0    0.0000
    116 C         100.0019  168.0978    7.0977 C.3      19        0    0.0000
    117 H          98.5058  168.6273    5.6189 H        19        0    0.0000
    118 H          99.6780  167.4410    5.0558 H        19        0    0.0000
    119 H         101.0947  168.0210    7.1551 H        19        0    0.0000
    120 H          99.7117  168.9430    7.7340 H        19        0    0.0000
    121 C          99.3718  166.7863    7.6814 C.3      20        0    0.0000
    122 C          99.9829  166.3999    9.0328 C.3      20        0    0.0000
    123 H          98.2892  166.9300    7.7853 H        20        0    0.0000
    124 H          99.5138  165.9736    6.9582 H        20        0    0.0000
    125 H         101.0419  166.6847    9.0620 H        20        0    0.0000
    126 H          99.4862  166.9505    9.8414 H        20        0    0.0000
    127 C          99.8646  164.8635    9.3207 C.3      21        0    0.0000
    128 C         100.4854  164.4754   10.6673 C.3      21        0    0.0000
    129 H          98.8049  164.5803    9.2995 H        21        0    0.0000
    130 H         100.3543  164.3128    8.5081 H        21        0    0.0000
    131 H          99.8575  164.8395   11.4898 H        21        0    0.0000
    132 H         100.5262  163.3832   10.7618 H        21        0    0.0000
    133 C         101.9324  165.0522   10.8426 C.3      22        0    0.0000
    134 C         102.4903  164.8038   12.2484 C.3      22        0    0.0000
    135 H         102.5886  164.5955   10.0914 H        22        0    0.0000
    136 H         101.9122  166.1284   10.6307 H        22        0    0.0000
    137 H         103.5123  164.4103   12.1833 H        22        0    0.0000
    138 H         102.5514  165.7493   12.8013 H        22        0    0.0000
    139 C         101.6118  163.7958   13.0666 C.3      23        0    0.0000
    140 C         102.1723  163.5438   14.4707 C.3      23        0    0.0000
    141 H         100.5907  164.1909   13.1345 H        23        0    0.0000
    142 H         101.5479  162.8514   12.5120 H        23        0    0.0000
    143 H         102.0206  164.4290   15.1007 H        23        0    0.0000
    144 H         101.6298  162.7193   14.9498 H        23        0    0.0000
    145 C         103.7008  163.1966   14.4467 C.3      24        0    0.0000
    146 C         104.2589  162.9343   15.8499 C.3      24        0    0.0000
    147 H         103.8534  162.3160   13.8105 H        24        0    0.0000
    148 H         104.2441  164.0244   13.9745 H        24        0    0.0000
    149 H         105.2812  162.5422   15.7809 H        24        0    0.0000
    150 H         104.3193  163.8742   16.4124 H        24        0    0.0000
    151 C         103.3811  161.9173   16.6578 C.3      25        0    0.0000
    152 C         103.6014  162.0334   18.1701 C.3      25        0    0.0000
    153 H         102.3252  162.0922   16.4169 H        25        0    0.0000
    154 H         103.6170  160.9005   16.3203 H        25        0    0.0000
    155 H         102.9907  161.2900   18.6973 H        25        0    0.0000
    156 H         104.6476  161.8131   18.4159 H        25        0    0.0000
    157 C         103.2438  163.4591   18.7149 C.3      26        0    0.0000
    158 C         102.3105  163.3997   19.9292 C.3      26        0    0.0000
    159 H         104.1725  163.9798   18.9793 H        26        0    0.0000
    160 H         102.7762  164.0385   17.9091 H        26        0    0.0000
    161 H         101.3818  162.8790   19.6648 H        26        0    0.0000
    162 H         102.7781  162.8204   20.7350 H        26        0    0.0000
    163 H         102.0619  164.3911   20.3080 H        26        0    0.0000
    164 H          99.2798  174.4287  -40.4349 H         0        0    0.0000
@<TRIPOS>BOND
     1     1     2      1
     2     1     3      1
     3     1     4      1
     4     1   164      H
     5     2     5      1
     6     2     6      1
     7     2     7      1
     8     7     8      1
     9     7     9      1
    10     7    10      1
    11     8    11      1
    12     8    12      1
    13     8    13      1
    14    13    14      1
    15    13    15      1
    16    13    16      1
    17    14    17      1
    18    14    18      1
    19    14    19      1
    20    19    20      1
    21    19    21      1
    22    19    22      1
    23    20    23      1
    24    20    24      1
    25    20    25      1
    26    25    26      1
    27    25    27      1
    28    25    28      1
    29    26    29      1
    30    26    30      1
    31    26    31      1
    32    31    32      1
    33    31    33      1
    34    31    34      1
    35    32    35      1
    36    32    36      1
    37    32    37      1
    38    37    38      1
    39    37    39      1
    40    37    40      1
    41    38    41      1
    42    38    42      1
    43    38    43      1
    44    43    44      1
    45    43    45      1
    46    43    46      1
    47    44    47      1
    48    44    48      1
    49    44    49      1
    50    49    50      1
    51    49    51      1
    52    49    52      1
    53    50    53      1
    54    50    54      1
    55    50    55      1
    56    55    56      1
    57    55    57      1
    58    55    58      1
    59    56    59      1
    60    56    60      1
    61    56    61      1
    62    61    62      1
    63    61    63      1
    64    61    64      1
    65    62    65      1
    66    62    66      1
    67    62    67      1
    68    67    68      1
    69    67    69      1
    70    67    70      1
    71    68    71      1
    72    68    72      1
    73    68    73      1
    74    73    74      1
    75    73    75      1
    76    73    76      1
    77    74    77      1
    78    74    78      1
    79    74    79      1
    80    79    80      1
    81    79    81      1
    82    79    82      1
    83    80    83      1
    84    80    84      1
    85    80    85      1
    86    85    86      1
    87    85    87      1
    88    85    88      1
    89    86    89      1
    90    86    90      1
    91    86    91      1
    92    91    92      1
    93    91    93      1
    94    91    94      1
    95    92    95      1
    96    92    96      1
    97    92    97      1
    98    97    98      1
    99    97    99      1
   100    97   100      1
   101    98   101      1
   102    98   102      1
   103    98   103      1
   104   103   104      1
   105   103   105      1
   106   103   106      1
   107   104   107      1
   108   104   108      1
   109   104   109      1
   110   109   110      1
   111   109   111      1
   112   109   112      1
   113   110   113      1
   114   110   114      1
   115   110   115      1
   116   115   116      1
   117   115   117      1
   118   115   118      1
   119   116   119      1
   120   116   120      1
   121   116   121      1
   122   121   122      1
   123   121   123      1
   124   121   124      1
   125   122   125      1
   126   122   126      1
   127   122   127      1
   128   127   128      1
   129   127   129      1
   130   127   130      1
   131   128   131      1
   132   128   132      1
   133   128   133      1
   134   133   134      1
   135   133   135      1
   136   133   136      1
   137   134   137      1
   138   134   138      1
   139   134   139      1
   140   139   140      1
   141   139   141      1
   142   139   142      1
   143   140   143      1
   144   140   144      1
   145   140   145      1
   146   145   146      1
   147   145   147      1
   148   145   148      1
   149   146   149      1
   150   146   150      1
   151   146   151      1
   152   151   152      1
   153   151   153      1
   154   151   154      1
   155   152   155      1
   156   152   156      1
   157   152   157      1
   158   157   158      1
   159   157   159      1
   160   157   160      1
   161   158   161      1
   162   158   162      1
   163   158   163      H
