###
### Created by PolyChef-cpp17 on Thu Feb 27 19:40:28 2025
###

@<TRIPOS>MOLECULE
NO_INFO
302 301 1 0 0
SMALL
USER_CHARGES


@<TRIPOS>ATOM
      1 C          69.2798  157.1087  -39.3449 C.3       0        0    0.0000
      2 C          67.8706  156.9482  -38.7641 C.3       0        0    0.0000
      3 H          69.9271  156.2966  -38.9913 H         0        0    0.0000
      4 H          69.7280  158.0455  -38.9913 H         0        0    0.0000
      5 H          67.3721  157.9240  -38.7113 H         0        0    0.0000
      6 H          67.2612  156.3184  -39.4241 H         0        0    0.0000
      7 C          67.8873  156.3112  -37.3318 C.3       1        0    0.0000
      8 C          69.1652  156.6546  -36.5583 C.3       1        0    0.0000
      9 H          67.0072  156.6618  -36.7786 H         1        0    0.0000
     10 H          67.7865  155.2230  -37.4275 H         1        0    0.0000
     11 H          70.0455  156.4763  -37.1883 H         1        0    0.0000
     12 H          69.1735  157.7207  -36.2999 H         1        0    0.0000
     13 C          69.3070  155.8145  -35.2424 C.3       2        0    0.0000
     14 C          70.2079  156.5005  -34.2096 C.3       2        0    0.0000
     15 H          68.3084  155.6487  -34.8195 H         2        0    0.0000
     16 H          69.7100  154.8260  -35.4956 H         2        0    0.0000
     17 H          71.2618  156.3754  -34.4876 H         2        0    0.0000
     18 H          70.0114  157.5798  -34.1968 H         2        0    0.0000
     19 C          69.9955  155.9311  -32.7645 C.3       3        0    0.0000
     20 C          70.6262  156.8237  -31.6900 C.3       3        0    0.0000
     21 H          68.9191  155.8249  -32.5810 H         3        0    0.0000
     22 H          70.4246  154.9227  -32.7152 H         3        0    0.0000
     23 H          71.7151  156.8559  -31.8193 H         3        0    0.0000
     24 H          70.2656  157.8542  -31.7979 H         3        0    0.0000
     25 C          70.3041  156.3250  -30.2392 C.3       4        0    0.0000
     26 C          70.9031  157.2388  -29.1644 C.3       4        0    0.0000
     27 H          69.2152  156.2664  -30.1190 H         4        0    0.0000
     28 H          70.6892  155.3044  -30.1225 H         4        0    0.0000
     29 H          71.9925  157.2930  -29.2813 H         4        0    0.0000
     30 H          70.5221  158.2606  -29.2845 H         4        0    0.0000
     31 C          70.5745  156.7442  -27.7136 C.3       5        0    0.0000
     32 C          71.1744  157.6575  -26.6388 C.3       5        0    0.0000
     33 H          69.4851  156.6908  -27.5964 H         5        0    0.0000
     34 H          70.9548  155.7222  -27.5938 H         5        0    0.0000
     35 H          72.2639  157.7108  -26.7558 H         5        0    0.0000
     36 H          70.7944  158.6797  -26.7588 H         5        0    0.0000
     37 C          70.8455  157.1632  -25.1880 C.3       6        0    0.0000
     38 C          71.4646  158.0637  -24.1133 C.3       6        0    0.0000
     39 H          69.7560  157.1260  -25.0656 H         6        0    0.0000
     40 H          71.2108  156.1351  -25.0734 H         6        0    0.0000
     41 H          72.5538  158.1044  -24.2383 H         6        0    0.0000
     42 H          71.0961  159.0909  -24.2252 H         6        0    0.0000
     43 C          71.1409  157.5659  -22.6625 C.3       7        0    0.0000
     44 C          70.9861  158.7250  -21.6717 C.3       7        0    0.0000
     45 H          70.2205  156.9695  -22.6904 H         7        0    0.0000
     46 H          71.9422  156.8933  -22.3323 H         7        0    0.0000
     47 H          71.9459  159.2405  -21.5429 H         7        0    0.0000
     48 H          70.2809  159.4664  -22.0674 H         7        0    0.0000
     49 C          70.4788  158.2437  -20.2687 C.3       8        0    0.0000
     50 C          71.3940  158.7068  -19.1299 C.3       8        0    0.0000
     51 H          69.4614  158.6227  -20.1115 H         8        0    0.0000
     52 H          70.4098  157.1488  -20.2742 H         8        0    0.0000
     53 H          72.4389  158.7084  -19.4640 H         8        0    0.0000
     54 H          71.1516  159.7392  -18.8487 H         8        0    0.0000
     55 C          71.2708  157.7952  -17.8605 C.3       9        0    0.0000
     56 C          70.9686  158.6021  -16.5930 C.3       9        0    0.0000
     57 H          70.4799  157.0546  -18.0325 H         9        0    0.0000
     58 H          72.2056  157.2347  -17.7357 H         9        0    0.0000
     59 H          71.8676  159.1388  -16.2655 H         9        0    0.0000
     60 H          70.2069  159.3629  -16.8041 H         9        0    0.0000
     61 C          70.4650  157.6954  -15.4175 C.3      10        0    0.0000
     62 C          70.8678  158.2464  -14.0453 C.3      10        0    0.0000
     63 H          69.3734  157.6071  -15.4818 H        10        0    0.0000
     64 H          70.8711  156.6851  -15.5512 H        10        0    0.0000
     65 H          71.9423  158.4675  -14.0293 H        10        0    0.0000
     66 H          70.3485  159.1935  -13.8530 H        10        0    0.0000
     67 C          70.5405  157.2458  -12.8838 C.3      11        0    0.0000
     68 C          70.7662  157.8670  -11.5010 C.3      11        0    0.0000
     69 H          69.4985  156.9174  -12.9832 H        11        0    0.0000
     70 H          71.1652  156.3515  -13.0009 H        11        0    0.0000
     71 H          71.8176  158.1586  -11.3867 H        11        0    0.0000
     72 H          70.1721  158.7837  -11.3989 H        11        0    0.0000
     73 C          70.3848  156.8858  -10.3395 C.3      12        0    0.0000
     74 C          70.6220  157.5026   -8.9566 C.3      12        0    0.0000
     75 H          69.3309  156.6012  -10.4487 H        12        0    0.0000
     76 H          70.9723  155.9656  -10.4467 H        12        0    0.0000
     77 H          71.6748  157.7916   -8.8492 H        12        0    0.0000
     78 H          70.0307  158.4203   -8.8476 H        12        0    0.0000
     79 C          70.2470  156.5189   -7.7950 C.3      13        0    0.0000
     80 C          70.4640  157.1434   -6.4123 C.3      13        0    0.0000
     81 H          69.1986  156.2177   -7.9114 H        13        0    0.0000
     82 H          70.8496  155.6076   -7.8950 H        13        0    0.0000
     83 H          71.5146  157.4355   -6.2921 H        13        0    0.0000
     84 H          69.8691  158.0601   -6.3159 H        13        0    0.0000
     85 C          70.0757  156.1646   -5.2509 C.3      14        0    0.0000
     86 C          70.2227  156.8141   -3.8704 C.3      14        0    0.0000
     87 H          69.0417  155.8302   -5.4011 H        14        0    0.0000
     88 H          70.7085  155.2707   -5.3153 H        14        0    0.0000
     89 H          71.2690  157.0940   -3.6959 H        14        0    0.0000
     90 H          69.6371  157.7407   -3.8264 H        14        0    0.0000
     91 C          69.7540  155.8647   -2.7143 C.3      15        0    0.0000
     92 C          70.0450  156.4501   -1.3281 C.3      15        0    0.0000
     93 H          68.6789  155.6767   -2.8251 H        15        0    0.0000
     94 H          70.2565  154.8960   -2.8266 H        15        0    0.0000
     95 H          71.0545  156.8790   -1.3052 H        15        0    0.0000
     96 H          69.3493  157.2705   -1.1125 H        15        0    0.0000
     97 C          69.9267  155.3757   -0.1927 C.3      16        0    0.0000
     98 C          70.4368  155.8967    1.1555 C.3      16        0    0.0000
     99 H          68.8772  155.0686   -0.1045 H        16        0    0.0000
    100 H          70.4921  154.4837   -0.4895 H        16        0    0.0000
    101 H          71.2794  156.5817    0.9996 H        16        0    0.0000
    102 H          69.6504  156.4737    1.6577 H        16        0    0.0000
    103 C          70.8971  154.7372    2.1048 C.3      17        0    0.0000
    104 C          71.4193  155.2590    3.4480 C.3      17        0    0.0000
    105 H          70.0518  154.0574    2.2683 H        17        0    0.0000
    106 H          71.6768  154.1544    1.5988 H        17        0    0.0000
    107 H          71.7077  156.3134    3.3555 H        17        0    0.0000
    108 H          70.6249  155.2147    4.2033 H        17        0    0.0000
    109 C          72.6531  154.4410    3.9639 C.3      18        0    0.0000
    110 C          73.1539  154.9408    5.3235 C.3      18        0    0.0000
    111 H          72.3722  153.3828    4.0324 H        18        0    0.0000
    112 H          73.4567  154.5062    3.2199 H        18        0    0.0000
    113 H          72.4597  154.6346    6.1158 H        18        0    0.0000
    114 H          74.1227  154.4829    5.5590 H        18        0    0.0000
    115 C          73.3093  156.5002    5.3627 C.3      19        0    0.0000
    116 C          73.7924  157.0017    6.7281 C.3      19        0    0.0000
    117 H          74.0140  156.8052    4.5791 H        19        0    0.0000
    118 H          72.3439  156.9582    5.1138 H        19        0    0.0000
    119 H          74.0621  158.0632    6.6651 H        19        0    0.0000
    120 H          72.9830  156.9254    7.4647 H        19        0    0.0000
    121 C          75.0307  156.1961    7.2527 C.3      20        0    0.0000
    122 C          75.3012  156.4499    8.7397 C.3      20        0    0.0000
    123 H          74.8563  155.1270    7.0792 H        20        0    0.0000
    124 H          75.9101  156.4724    6.6578 H        20        0    0.0000
    125 H          75.2392  157.5238    8.9554 H        20        0    0.0000
    126 H          74.5323  155.9610    9.3507 H        20        0    0.0000
    127 C          76.7097  155.9256    9.1854 C.3      21        0    0.0000
    128 C          77.4053  156.8842   10.1581 C.3      21        0    0.0000
    129 H          76.5889  154.9395    9.6508 H        21        0    0.0000
    130 H          77.3309  155.7788    8.2931 H        21        0    0.0000
    131 H          77.2314  157.9230    9.8514 H        21        0    0.0000
    132 H          76.9776  156.7766   11.1627 H        21        0    0.0000
    133 C          78.9505  156.6326   10.2372 C.3      22        0    0.0000
    134 C          79.7485  157.9388   10.3152 C.3      22        0    0.0000
    135 H          79.1629  156.0092   11.1146 H        22        0    0.0000
    136 H          79.2602  156.0546    9.3576 H        22        0    0.0000
    137 H          79.3357  158.6742    9.6135 H        22        0    0.0000
    138 H          79.6588  158.3751   11.3178 H        22        0    0.0000
    139 C          81.2674  157.7275    9.9901 C.3      23        0    0.0000
    140 C          81.8349  158.8484    9.1123 C.3      23        0    0.0000
    141 H          81.8258  157.6684   10.9325 H        23        0    0.0000
    142 H          81.3905  156.7589    9.4897 H        23        0    0.0000
    143 H          81.1030  159.1335    8.3464 H        23        0    0.0000
    144 H          82.0212  159.7434    9.7187 H        23        0    0.0000
    145 C          83.1700  158.4306    8.4047 C.3      24        0    0.0000
    146 C          84.3667  159.2574    8.8878 C.3      24        0    0.0000
    147 H          83.3499  157.3644    8.5903 H        24        0    0.0000
    148 H          83.0466  158.5453    7.3207 H        24        0    0.0000
    149 H          84.4737  160.1593    8.2725 H        24        0    0.0000
    150 H          84.1986  159.5966    9.9175 H        24        0    0.0000
    151 C          85.7081  158.4478    8.8352 C.3      25        0    0.0000
    152 C          86.5153  158.7429    7.5663 C.3      25        0    0.0000
    153 H          86.3029  158.6908    9.7244 H        25        0    0.0000
    154 H          85.4773  157.3768    8.8937 H        25        0    0.0000
    155 H          85.8604  159.1634    6.7931 H        25        0    0.0000
    156 H          87.2818  159.4994    7.7754 H        25        0    0.0000
    157 C          87.2134  157.4609    6.9946 C.3      26        0    0.0000
    158 C          87.3959  157.5279    5.4744 C.3      26        0    0.0000
    159 H          88.1871  157.3400    7.4854 H        26        0    0.0000
    160 H          86.6139  156.5823    7.2632 H        26        0    0.0000
    161 H          86.4284  157.6993    4.9865 H        26        0    0.0000
    162 H          88.0372  158.3777    5.2095 H        26        0    0.0000
    163 C          88.0293  156.2167    4.8937 C.3      27        0    0.0000
    164 C          88.4498  156.3743    3.4283 C.3      27        0    0.0000
    165 H          88.8968  155.9417    5.5064 H        27        0    0.0000
    166 H          87.3032  155.4001    4.9910 H        27        0    0.0000
    167 H          87.5620  156.4511    2.7884 H        27        0    0.0000
    168 H          89.0143  157.3058    3.2970 H        27        0    0.0000
    169 C          89.3294  155.1761    2.9304 C.3      28        0    0.0000
    170 C          89.7553  155.3369    1.4670 C.3      28        0    0.0000
    171 H          90.2148  155.0963    3.5733 H        28        0    0.0000
    172 H          88.7631  154.2451    3.0573 H        28        0    0.0000
    173 H          90.5160  156.1228    1.3808 H        28        0    0.0000
    174 H          90.2177  154.4100    1.1057 H        28        0    0.0000
    175 C          88.5487  155.6970    0.5332 C.3      29        0    0.0000
    176 C          88.9833  155.9109   -0.9209 C.3      29        0    0.0000
    177 H          87.8057  154.8918    0.5892 H        29        0    0.0000
    178 H          88.0621  156.6020    0.9174 H        29        0    0.0000
    179 H          88.1032  155.9482   -1.5749 H        29        0    0.0000
    180 H          89.4927  156.8772   -1.0230 H        29        0    0.0000
    181 C          89.9416  154.7784   -1.4274 C.3      30        0    0.0000
    182 C          90.4420  155.0355   -2.8531 C.3      30        0    0.0000
    183 H          90.7919  154.7004   -0.7386 H        30        0    0.0000
    184 H          89.4106  153.8195   -1.3823 H        30        0    0.0000
    185 H          91.2225  155.8064   -2.8445 H        30        0    0.0000
    186 H          90.9017  154.1263   -3.2600 H        30        0    0.0000
    187 C          89.2906  155.4929   -3.8135 C.3      31        0    0.0000
    188 C          89.8008  155.8051   -5.2246 C.3      31        0    0.0000
    189 H          88.5299  154.7034   -3.8546 H        31        0    0.0000
    190 H          88.8034  156.3777   -3.3853 H        31        0    0.0000
    191 H          89.9690  156.8837   -5.3337 H        31        0    0.0000
    192 H          90.7690  155.3168   -5.3911 H        31        0    0.0000
    193 C          88.8000  155.3348   -6.3358 C.3      32        0    0.0000
    194 C          89.3393  155.5877   -7.7480 C.3      32        0    0.0000
    195 H          88.5946  154.2661   -6.1974 H        32        0    0.0000
    196 H          87.8464  155.8594   -6.1978 H        32        0    0.0000
    197 H          89.4483  156.6654   -7.9216 H        32        0    0.0000
    198 H          90.3393  155.1490   -7.8529 H        32        0    0.0000
    199 C          88.4061  154.9892   -8.8563 C.3      33        0    0.0000
    200 C          88.9363  155.2573  -10.2691 C.3      33        0    0.0000
    201 H          88.3074  153.9093   -8.6902 H        33        0    0.0000
    202 H          87.4028  155.4183   -8.7434 H        33        0    0.0000
    203 H          89.8274  154.6462  -10.4587 H        33        0    0.0000
    204 H          88.1873  154.9620  -11.0143 H        33        0    0.0000
    205 C          89.3017  156.7657  -10.4902 C.3      34        0    0.0000
    206 C          89.9122  157.0188  -11.8730 C.3      34        0    0.0000
    207 H          88.3960  157.3713  -10.3623 H        34        0    0.0000
    208 H          90.0029  157.0782   -9.7065 H        34        0    0.0000
    209 H          89.3709  157.8264  -12.3811 H        34        0    0.0000
    210 H          90.9521  157.3528  -11.7697 H        34        0    0.0000
    211 C          89.8798  155.7404  -12.7797 C.3      35        0    0.0000
    212 C          90.0590  156.0765  -14.2643 C.3      35        0    0.0000
    213 H          90.6701  155.0539  -12.4514 H        35        0    0.0000
    214 H          88.9263  155.2206  -12.6242 H        35        0    0.0000
    215 H          89.5182  156.9991  -14.5090 H        35        0    0.0000
    216 H          91.1176  156.2646  -14.4823 H        35        0    0.0000
    217 C          89.5470  154.9273  -15.1996 C.3      36        0    0.0000
    218 C          89.7191  155.2667  -16.6843 C.3      36        0    0.0000
    219 H          90.0918  154.0061  -14.9587 H        36        0    0.0000
    220 H          88.4899  154.7354  -14.9777 H        36        0    0.0000
    221 H          90.7809  155.2300  -16.9579 H        36        0    0.0000
    222 H          89.2084  154.5183  -17.3029 H        36        0    0.0000
    223 C          89.1548  156.6856  -17.0387 C.3      37        0    0.0000
    224 C          89.3367  157.0294  -18.5212 C.3      37        0    0.0000
    225 H          88.0911  156.7197  -16.7724 H        37        0    0.0000
    226 H          89.6599  157.4331  -16.4145 H        37        0    0.0000
    227 H          88.3636  157.2455  -18.9794 H        37        0    0.0000
    228 H          89.9426  157.9380  -18.6251 H        37        0    0.0000
    229 C          90.0247  155.8692  -19.3200 C.3      38        0    0.0000
    230 C          89.9351  156.0751  -20.8361 C.3      38        0    0.0000
    231 H          91.0752  155.8016  -19.0110 H        38        0    0.0000
    232 H          89.5525  154.9191  -19.0409 H        38        0    0.0000
    233 H          88.9005  156.2981  -21.1250 H        38        0    0.0000
    234 H          90.5391  156.9410  -21.1345 H        38        0    0.0000
    235 C          90.4235  154.8186  -21.6362 C.3      39        0    0.0000
    236 C          90.3356  155.0252  -23.1524 C.3      39        0    0.0000
    237 H          91.4577  154.5949  -21.3464 H        39        0    0.0000
    238 H          89.8188  153.9530  -21.3389 H        39        0    0.0000
    239 H          90.8345  154.1991  -23.6741 H        39        0    0.0000
    240 H          89.2867  155.0130  -23.4735 H        39        0    0.0000
    241 C          90.9873  156.3767  -23.6066 C.3      40        0    0.0000
    242 C          90.7195  156.6829  -25.0843 C.3      40        0    0.0000
    243 H          90.5968  157.1865  -22.9778 H        40        0    0.0000
    244 H          92.0677  156.3279  -23.4223 H        40        0    0.0000
    245 H          89.9996  157.5059  -25.1734 H        40        0    0.0000
    246 H          91.6432  157.0181  -25.5723 H        40        0    0.0000
    247 C          90.1624  155.4382  -25.8574 C.3      41        0    0.0000
    248 C          89.9829  155.7166  -27.3539 C.3      41        0    0.0000
    249 H          90.8488  154.5950  -25.7114 H        41        0    0.0000
    250 H          89.2038  155.1451  -25.4117 H        41        0    0.0000
    251 H          89.0342  155.2916  -27.7044 H        41        0    0.0000
    252 H          89.9285  156.7978  -27.5315 H        41        0    0.0000
    253 C          91.1512  155.1216  -28.2132 C.3      42        0    0.0000
    254 C          90.9387  155.3427  -29.7149 C.3      42        0    0.0000
    255 H          92.0945  155.5824  -27.8949 H        42        0    0.0000
    256 H          91.2367  154.0489  -27.9993 H        42        0    0.0000
    257 H          91.0392  156.4081  -29.9561 H        42        0    0.0000
    258 H          91.7132  154.8159  -30.2860 H        42        0    0.0000
    259 C          89.5313  154.8465  -30.1951 C.3      43        0    0.0000
    260 C          89.2403  155.2420  -31.6470 C.3      43        0    0.0000
    261 H          89.4847  153.7559  -30.0858 H        43        0    0.0000
    262 H          88.7639  155.2628  -29.5308 H        43        0    0.0000
    263 H          88.8106  154.3910  -32.1898 H        43        0    0.0000
    264 H          88.4923  156.0440  -31.6756 H        43        0    0.0000
    265 C          90.5274  155.7243  -32.4008 C.3      44        0    0.0000
    266 C          90.2794  155.9327  -33.8988 C.3      44        0    0.0000
    267 H          90.8757  156.6587  -31.9435 H        44        0    0.0000
    268 H          91.3233  154.9843  -32.2506 H        44        0    0.0000
    269 H          89.3068  156.4155  -34.0555 H        44        0    0.0000
    270 H          91.0370  156.6082  -34.3151 H        44        0    0.0000
    271 C          90.3094  154.5851  -34.6991 C.3      45        0    0.0000
    272 C          90.1294  154.8002  -36.2059 C.3      45        0    0.0000
    273 H          91.2624  154.0784  -34.5027 H        45        0    0.0000
    274 H          89.5186  153.9285  -34.3157 H        45        0    0.0000
    275 H          90.2751  153.8537  -36.7410 H        45        0    0.0000
    276 H          89.1045  155.1282  -36.4192 H        45        0    0.0000
    277 C          91.1295  155.8633  -36.7779 C.3      46        0    0.0000
    278 C          90.7956  156.2575  -38.2209 C.3      46        0    0.0000
    279 H          91.1109  156.7498  -36.1319 H        46        0    0.0000
    280 H          92.1468  155.4561  -36.7249 H        46        0    0.0000
    281 H          90.3560  157.2624  -38.2442 H        46        0    0.0000
    282 H          91.7131  156.3010  -38.8208 H        46        0    0.0000
    283 C          89.7980  155.2538  -38.8953 C.3      47        0    0.0000
    284 C          89.4346  155.6687  -40.3253 C.3      47        0    0.0000
    285 H          90.2494  154.2540  -38.8969 H        47        0    0.0000
    286 H          88.8917  155.1893  -38.2805 H        47        0    0.0000
    287 H          88.9019  154.8530  -40.8297 H        47        0    0.0000
    288 H          88.7512  156.5267  -40.3059 H        47        0    0.0000
    289 C          90.6976  156.0478  -41.1730 C.3      48        0    0.0000
    290 C          90.3316  156.8085  -42.4522 C.3      48        0    0.0000
    291 H          91.3700  156.6545  -40.5539 H        48        0    0.0000
    292 H          91.2433  155.1298  -41.4243 H        48        0    0.0000
    293 H          91.2397  157.0540  -43.0167 H        48        0    0.0000
    294 H          89.7173  156.1749  -43.1039 H        48        0    0.0000
    295 C          89.5493  158.1334  -42.1523 C.3      49        0    0.0000
    296 C          89.1627  158.8822  -43.4325 C.3      49        0    0.0000
    297 H          88.6500  157.8897  -41.5730 H        49        0    0.0000
    298 H          90.1707  158.7744  -41.5147 H        49        0    0.0000
    299 H          90.0619  159.1259  -44.0118 H        49        0    0.0000
    300 H          88.5413  158.2413  -44.0702 H        49        0    0.0000
    301 H          88.6188  159.8035  -43.2240 H        49        0    0.0000
    302 H          69.2798  157.1087  -40.4349 H         0        0    0.0000
@<TRIPOS>BOND
     1     1     2      1
     2     1     3      1
     3     1     4      1
     4     1   302      H
     5     2     5      1
     6     2     6      1
     7     2     7      1
     8     7     8      1
     9     7     9      1
    10     7    10      1
    11     8    11      1
    12     8    12      1
    13     8    13      1
    14    13    14      1
    15    13    15      1
    16    13    16      1
    17    14    17      1
    18    14    18      1
    19    14    19      1
    20    19    20      1
    21    19    21      1
    22    19    22      1
    23    20    23      1
    24    20    24      1
    25    20    25      1
    26    25    26      1
    27    25    27      1
    28    25    28      1
    29    26    29      1
    30    26    30      1
    31    26    31      1
    32    31    32      1
    33    31    33      1
    34    31    34      1
    35    32    35      1
    36    32    36      1
    37    32    37      1
    38    37    38      1
    39    37    39      1
    40    37    40      1
    41    38    41      1
    42    38    42      1
    43    38    43      1
    44    43    44      1
    45    43    45      1
    46    43    46      1
    47    44    47      1
    48    44    48      1
    49    44    49      1
    50    49    50      1
    51    49    51      1
    52    49    52      1
    53    50    53      1
    54    50    54      1
    55    50    55      1
    56    55    56      1
    57    55    57      1
    58    55    58      1
    59    56    59      1
    60    56    60      1
    61    56    61      1
    62    61    62      1
    63    61    63      1
    64    61    64      1
    65    62    65      1
    66    62    66      1
    67    62    67      1
    68    67    68      1
    69    67    69      1
    70    67    70      1
    71    68    71      1
    72    68    72      1
    73    68    73      1
    74    73    74      1
    75    73    75      1
    76    73    76      1
    77    74    77      1
    78    74    78      1
    79    74    79      1
    80    79    80      1
    81    79    81      1
    82    79    82      1
    83    80    83      1
    84    80    84      1
    85    80    85      1
    86    85    86      1
    87    85    87      1
    88    85    88      1
    89    86    89      1
    90    86    90      1
    91    86    91      1
    92    91    92      1
    93    91    93      1
    94    91    94      1
    95    92    95      1
    96    92    96      1
    97    92    97      1
    98    97    98      1
    99    97    99      1
   100    97   100      1
   101    98   101      1
   102    98   102      1
   103    98   103      1
   104   103   104      1
   105   103   105      1
   106   103   106      1
   107   104   107      1
   108   104   108      1
   109   104   109      1
   110   109   110      1
   111   109   111      1
   112   109   112      1
   113   110   113      1
   114   110   114      1
   115   110   115      1
   116   115   116      1
   117   115   117      1
   118   115   118      1
   119   116   119      1
   120   116   120      1
   121   116   121      1
   122   121   122      1
   123   121   123      1
   124   121   124      1
   125   122   125      1
   126   122   126      1
   127   122   127      1
   128   127   128      1
   129   127   129      1
   130   127   130      1
   131   128   131      1
   132   128   132      1
   133   128   133      1
   134   133   134      1
   135   133   135      1
   136   133   136      1
   137   134   137      1
   138   134   138      1
   139   134   139      1
   140   139   140      1
   141   139   141      1
   142   139   142      1
   143   140   143      1
   144   140   144      1
   145   140   145      1
   146   145   146      1
   147   145   147      1
   148   145   148      1
   149   146   149      1
   150   146   150      1
   151   146   151      1
   152   151   152      1
   153   151   153      1
   154   151   154      1
   155   152   155      1
   156   152   156      1
   157   152   157      1
   158   157   158      1
   159   157   159      1
   160   157   160      1
   161   158   161      1
   162   158   162      1
   163   158   163      1
   164   163   164      1
   165   163   165      1
   166   163   166      1
   167   164   167      1
   168   164   168      1
   169   164   169      1
   170   169   170      1
   171   169   171      1
   172   169   172      1
   173   170   173      1
   174   170   174      1
   175   170   175      1
   176   175   176      1
   177   175   177      1
   178   175   178      1
   179   176   179      1
   180   176   180      1
   181   176   181      1
   182   181   182      1
   183   181   183      1
   184   181   184      1
   185   182   185      1
   186   182   186      1
   187   182   187      1
   188   187   188      1
   189   187   189      1
   190   187   190      1
   191   188   191      1
   192   188   192      1
   193   188   193      1
   194   193   194      1
   195   193   195      1
   196   193   196      1
   197   194   197      1
   198   194   198      1
   199   194   199      1
   200   199   200      1
   201   199   201      1
   202   199   202      1
   203   200   203      1
   204   200   204      1
   205   200   205      1
   206   205   206      1
   207   205   207      1
   208   205   208      1
   209   206   209      1
   210   206   210      1
   211   206   211      1
   212   211   212      1
   213   211   213      1
   214   211   214      1
   215   212   215      1
   216   212   216      1
   217   212   217      1
   218   217   218      1
   219   217   219      1
   220   217   220      1
   221   218   221      1
   222   218   222      1
   223   218   223      1
   224   223   224      1
   225   223   225      1
   226   223   226      1
   227   224   227      1
   228   224   228      1
   229   224   229      1
   230   229   230      1
   231   229   231      1
   232   229   232      1
   233   230   233      1
   234   230   234      1
   235   230   235      1
   236   235   236      1
   237   235   237      1
   238   235   238      1
   239   236   239      1
   240   236   240      1
   241   236   241      1
   242   241   242      1
   243   241   243      1
   244   241   244      1
   245   242   245      1
   246   242   246      1
   247   242   247      1
   248   247   248      1
   249   247   249      1
   250   247   250      1
   251   248   251      1
   252   248   252      1
   253   248   253      1
   254   253   254      1
   255   253   255      1
   256   253   256      1
   257   254   257      1
   258   254   258      1
   259   254   259      1
   260   259   260      1
   261   259   261      1
   262   259   262      1
   263   260   263      1
   264   260   264      1
   265   260   265      1
   266   265   266      1
   267   265   267      1
   268   265   268      1
   269   266   269      1
   270   266   270      1
   271   266   271      1
   272   271   272      1
   273   271   273      1
   274   271   274      1
   275   272   275      1
   276   272   276      1
   277   272   277      1
   278   277   278      1
   279   277   279      1
   280   277   280      1
   281   278   281      1
   282   278   282      1
   283   278   283      1
   284   283   284      1
   285   283   285      1
   286   283   286      1
   287   284   287      1
   288   284   288      1
   289   284   289      1
   290   289   290      1
   291   289   291      1
   292   289   292      1
   293   290   293      1
   294   290   294      1
   295   290   295      1
   296   295   296      1
   297   295   297      1
   298   295   298      1
   299   296   299      1
   300   296   300      1
   301   296   301      H
