###
### Created by PolyChef-cpp17 on Thu Feb 27 19:40:30 2025
###

@<TRIPOS>MOLECULE
NO_INFO
128 127 1 0 0
SMALL
USER_CHARGES


@<TRIPOS>ATOM
      1 C          19.2798    1.2287  120.6551 C.3       0        0    0.0000
      2 C          18.4513    0.0775  120.0742 C.3       0        0    0.0000
      3 H          18.8875    2.1902  120.3015 H         0        0    0.0000
      4 H          20.3162    1.1621  120.3014 H         0        0    0.0000
      5 H          18.4067   -0.7525  120.7902 H         0        0    0.0000
      6 H          17.4177    0.4050  119.9068 H         0        0    0.0000
      7 C          19.0385   -0.4534  118.7211 C.3       1        0    0.0000
      8 C          19.6371    0.6698  117.8672 C.3       1        0    0.0000
      9 H          19.8039   -1.2083  118.9398 H         1        0    0.0000
     10 H          18.2419   -0.9641  118.1661 H         1        0    0.0000
     11 H          18.9468    1.5216  117.8286 H         1        0    0.0000
     12 H          20.5645    1.0364  118.3244 H         1        0    0.0000
     13 C          19.9458    0.2028  116.4030 C.3       2        0    0.0000
     14 C          19.8864    1.3598  115.3996 C.3       2        0    0.0000
     15 H          20.9390   -0.2625  116.3822 H         2        0    0.0000
     16 H          19.2268   -0.5766  116.1214 H         2        0    0.0000
     17 H          18.9655    1.9379  115.5460 H         2        0    0.0000
     18 H          20.7220    2.0497  115.5710 H         2        0    0.0000
     19 C          19.9392    0.8614  113.9142 C.3       3        0    0.0000
     20 C          19.8205    2.0135  112.9104 C.3       3        0    0.0000
     21 H          20.8803    0.3202  113.7561 H         3        0    0.0000
     22 H          19.1295    0.1386  113.7548 H         3        0    0.0000
     23 H          18.8837    2.5603  113.0744 H         3        0    0.0000
     24 H          20.6355    2.7317  113.0639 H         3        0    0.0000
     25 C          19.8604    1.5138  111.4251 C.3       4        0    0.0000
     26 C          19.7989    2.6703  110.4213 C.3       4        0    0.0000
     27 H          20.7776    0.9316  111.2724 H         4        0    0.0000
     28 H          19.0205    0.8275  111.2602 H         4        0    0.0000
     29 H          18.8762    3.2458  110.5665 H         4        0    0.0000
     30 H          20.6323    3.3626  110.5935 H         4        0    0.0000
     31 C          19.8549    2.1716  108.9361 C.3       5        0    0.0000
     32 C          18.7544    2.7966  108.0716 C.3       5        0    0.0000
     33 H          20.8414    2.4104  108.5199 H         5        0    0.0000
     34 H          19.7652    1.0783  108.9267 H         5        0    0.0000
     35 H          17.8032    2.8003  108.6182 H         5        0    0.0000
     36 H          18.9966    3.8442  107.8538 H         5        0    0.0000
     37 C          18.5562    2.0318  106.7177 C.3       6        0    0.0000
     38 C          18.8340    2.9222  105.5015 C.3       6        0    0.0000
     39 H          19.2204    1.1587  106.7042 H         6        0    0.0000
     40 H          17.5296    1.6473  106.6757 H         6        0    0.0000
     41 H          17.9111    3.4224  105.1829 H         6        0    0.0000
     42 H          19.5450    3.7137  105.7693 H         6        0    0.0000
     43 C          19.4130    2.1113  104.2913 C.3       7        0    0.0000
     44 C          18.7694    2.5154  102.9603 C.3       7        0    0.0000
     45 H          20.4979    2.2677  104.2474 H         7        0    0.0000
     46 H          19.2562    1.0412  104.4753 H         7        0    0.0000
     47 H          17.6780    2.5501  103.0654 H         7        0    0.0000
     48 H          19.0911    3.5256  102.6783 H         7        0    0.0000
     49 C          19.1341    1.5267  101.7997 C.3       8        0    0.0000
     50 C          18.9327    2.1552  100.4164 C.3       8        0    0.0000
     51 H          20.1773    1.2092  101.9203 H         8        0    0.0000
     52 H          18.5171    0.6248  101.8965 H         8        0    0.0000
     53 H          17.8720    2.3876  100.2597 H         8        0    0.0000
     54 H          19.4763    3.1060  100.3524 H         8        0    0.0000
     55 C          19.4203    1.2156   99.2602 C.3       9        0    0.0000
     56 C          19.1283    1.8007   97.8740 C.3       9        0    0.0000
     57 H          20.4973    1.0421   99.3760 H         9        0    0.0000
     58 H          18.9307    0.2397   99.3673 H         9        0    0.0000
     59 H          18.0541    1.9956   97.7667 H         9        0    0.0000
     60 H          19.6367    2.7659   97.7584 H         9        0    0.0000
     61 C          19.5867    0.8465   96.7178 C.3      10        0    0.0000
     62 C          19.3102    1.4390   95.3316 C.3      10        0    0.0000
     63 H          20.6584    0.6416   96.8324 H        10        0    0.0000
     64 H          19.0689   -0.1145   96.8262 H        10        0    0.0000
     65 H          18.2386    1.6447   95.2174 H        10        0    0.0000
     66 H          19.8287    2.3997   95.2229 H        10        0    0.0000
     67 C          19.7675    0.4843   94.1754 C.3      11        0    0.0000
     68 C          19.4883    1.0756   92.7892 C.3      11        0    0.0000
     69 H          20.8396    0.2805   94.2884 H        11        0    0.0000
     70 H          19.2507   -0.4771   94.2854 H        11        0    0.0000
     71 H          18.4166    1.2816   92.6771 H        11        0    0.0000
     72 H          20.0070    2.0359   92.6784 H        11        0    0.0000
     73 C          19.9427    0.1195   91.6330 C.3      12        0    0.0000
     74 C          19.6523    0.7054   90.2469 C.3      12        0    0.0000
     75 H          21.0162   -0.0794   91.7400 H        12        0    0.0000
     76 H          19.4307   -0.8439   91.7490 H        12        0    0.0000
     77 H          18.5774    0.8951   90.1363 H        12        0    0.0000
     78 H          20.1563    1.6733   90.1345 H        12        0    0.0000
     79 C          20.1192   -0.2446   89.0906 C.3      13        0    0.0000
     80 C          19.8314    0.3426   87.7044 C.3      13        0    0.0000
     81 H          21.1936   -0.4360   89.2023 H        13        0    0.0000
     82 H          19.6137   -1.2119   89.2017 H        13        0    0.0000
     83 H          18.7576    0.5382   87.5943 H        13        0    0.0000
     84 H          20.3407    1.3077   87.5916 H        13        0    0.0000
     85 C          20.2926   -0.6102   86.5482 C.3      14        0    0.0000
     86 C          20.0255   -0.0131   85.1621 C.3      14        0    0.0000
     87 H          21.3629   -0.8192   86.6678 H        14        0    0.0000
     88 H          19.7708   -1.5697   86.6513 H        14        0    0.0000
     89 H          18.9629    0.2399   85.0599 H        14        0    0.0000
     90 H          20.5852    0.9228   85.0415 H        14        0    0.0000
     91 C          20.4251   -0.9933   84.0059 C.3      15        0    0.0000
     92 C          20.1596   -0.3955   82.6198 C.3      15        0    0.0000
     93 H          21.4874   -1.2472   84.1088 H        15        0    0.0000
     94 H          19.8646   -1.9287   84.1258 H        15        0    0.0000
     95 H          19.0800   -0.2879   82.4571 H        15        0    0.0000
     96 H          20.5898    0.6116   82.5558 H        15        0    0.0000
     97 C          20.7589   -1.2750   81.4688 C.3      16        0    0.0000
     98 C          20.4367   -0.7123   80.0800 C.3      16        0    0.0000
     99 H          21.8454   -1.3425   81.6045 H        16        0    0.0000
    100 H          20.3658   -2.2950   81.5618 H        16        0    0.0000
    101 H          21.0494   -1.2127   79.3199 H        16        0    0.0000
    102 H          19.3894   -0.9167   79.8250 H        16        0    0.0000
    103 C          20.6857    0.8329   79.9926 C.3      17        0    0.0000
    104 C          20.7117    1.3362   78.5452 C.3      17        0    0.0000
    105 H          19.8996    1.3502   80.5566 H        17        0    0.0000
    106 H          21.6355    1.0667   80.4893 H        17        0    0.0000
    107 H          21.3121    0.6610   77.9230 H        17        0    0.0000
    108 H          19.6975    1.3315   78.1270 H        17        0    0.0000
    109 C          21.2990    2.7851   78.4304 C.3      18        0    0.0000
    110 C          21.4955    3.2185   76.9735 C.3      18        0    0.0000
    111 H          20.6237    3.4819   78.9424 H        18        0    0.0000
    112 H          22.2555    2.8224   78.9663 H        18        0    0.0000
    113 H          20.5231    3.3088   76.4735 H        18        0    0.0000
    114 H          21.9624    4.2105   76.9359 H        18        0    0.0000
    115 C          22.3858    2.2101   76.1686 C.3      19        0    0.0000
    116 C          22.4653    2.5656   74.6799 C.3      19        0    0.0000
    117 H          23.3915    2.1985   76.6069 H        19        0    0.0000
    118 H          21.9764    1.1999   76.2928 H        19        0    0.0000
    119 H          23.5101    2.5526   74.3453 H        19        0    0.0000
    120 H          21.9345    1.8125   74.0844 H        19        0    0.0000
    121 C          21.8538    3.9759   74.3724 C.3      20        0    0.0000
    122 C          21.7737    4.2588   72.8682 C.3      20        0    0.0000
    123 H          20.8537    4.0328   74.8197 H        20        0    0.0000
    124 H          22.4643    4.7415   74.8671 H        20        0    0.0000
    125 H          22.7738    4.2019   72.4209 H        20        0    0.0000
    126 H          21.1632    3.4932   72.3735 H        20        0    0.0000
    127 H          21.3485    5.2394   72.6544 H        20        0    0.0000
    128 H          19.2798    1.2287  121.7450 H         0        0    0.0000
@<TRIPOS>BOND
     1     1     2      1
     2     1     3      1
     3     1     4      1
     4     1   128      H
     5     2     5      1
     6     2     6      1
     7     2     7      1
     8     7     8      1
     9     7     9      1
    10     7    10      1
    11     8    11      1
    12     8    12      1
    13     8    13      1
    14    13    14      1
    15    13    15      1
    16    13    16      1
    17    14    17      1
    18    14    18      1
    19    14    19      1
    20    19    20      1
    21    19    21      1
    22    19    22      1
    23    20    23      1
    24    20    24      1
    25    20    25      1
    26    25    26      1
    27    25    27      1
    28    25    28      1
    29    26    29      1
    30    26    30      1
    31    26    31      1
    32    31    32      1
    33    31    33      1
    34    31    34      1
    35    32    35      1
    36    32    36      1
    37    32    37      1
    38    37    38      1
    39    37    39      1
    40    37    40      1
    41    38    41      1
    42    38    42      1
    43    38    43      1
    44    43    44      1
    45    43    45      1
    46    43    46      1
    47    44    47      1
    48    44    48      1
    49    44    49      1
    50    49    50      1
    51    49    51      1
    52    49    52      1
    53    50    53      1
    54    50    54      1
    55    50    55      1
    56    55    56      1
    57    55    57      1
    58    55    58      1
    59    56    59      1
    60    56    60      1
    61    56    61      1
    62    61    62      1
    63    61    63      1
    64    61    64      1
    65    62    65      1
    66    62    66      1
    67    62    67      1
    68    67    68      1
    69    67    69      1
    70    67    70      1
    71    68    71      1
    72    68    72      1
    73    68    73      1
    74    73    74      1
    75    73    75      1
    76    73    76      1
    77    74    77      1
    78    74    78      1
    79    74    79      1
    80    79    80      1
    81    79    81      1
    82    79    82      1
    83    80    83      1
    84    80    84      1
    85    80    85      1
    86    85    86      1
    87    85    87      1
    88    85    88      1
    89    86    89      1
    90    86    90      1
    91    86    91      1
    92    91    92      1
    93    91    93      1
    94    91    94      1
    95    92    95      1
    96    92    96      1
    97    92    97      1
    98    97    98      1
    99    97    99      1
   100    97   100      1
   101    98   101      1
   102    98   102      1
   103    98   103      1
   104   103   104      1
   105   103   105      1
   106   103   106      1
   107   104   107      1
   108   104   108      1
   109   104   109      1
   110   109   110      1
   111   109   111      1
   112   109   112      1
   113   110   113      1
   114   110   114      1
   115   110   115      1
   116   115   116      1
   117   115   117      1
   118   115   118      1
   119   116   119      1
   120   116   120      1
   121   116   121      1
   122   121   122      1
   123   121   123      1
   124   121   124      1
   125   122   125      1
   126   122   126      1
   127   122   127      H
