###
### Created by PolyChef-cpp17 on Thu Feb 27 19:40:30 2025
###

@<TRIPOS>MOLECULE
NO_INFO
146 145 1 0 0
SMALL
USER_CHARGES


@<TRIPOS>ATOM
      1 C         149.2798  122.4687  -39.3449 C.3       0        0    0.0000
      2 C         147.8706  122.3082  -38.7641 C.3       0        0    0.0000
      3 H         149.9271  121.6566  -38.9913 H         0        0    0.0000
      4 H         149.7280  123.4055  -38.9913 H         0        0    0.0000
      5 H         147.3722  123.2841  -38.7109 H         0        0    0.0000
      6 H         147.2610  121.6787  -39.4243 H         0        0    0.0000
      7 C         147.8873  121.6707  -37.3320 C.3       1        0    0.0000
      8 C         149.1651  122.0139  -36.5584 C.3       1        0    0.0000
      9 H         147.0070  122.0209  -36.7788 H         1        0    0.0000
     10 H         147.7866  120.5825  -37.4282 H         1        0    0.0000
     11 H         150.0453  121.8393  -37.1894 H         1        0    0.0000
     12 H         149.1716  123.0792  -36.2965 H         1        0    0.0000
     13 C         149.3093  121.1699  -35.2452 C.3       2        0    0.0000
     14 C         150.2039  121.8576  -34.2081 C.3       2        0    0.0000
     15 H         148.3109  120.9965  -34.8249 H         2        0    0.0000
     16 H         149.7188  120.1848  -35.5012 H         2        0    0.0000
     17 H         151.2592  121.7386  -34.4835 H         2        0    0.0000
     18 H         150.0020  122.9358  -34.1929 H         2        0    0.0000
     19 C         149.9905  121.2832  -32.7652 C.3       3        0    0.0000
     20 C         150.6138  122.1759  -31.6865 C.3       3        0    0.0000
     21 H         148.9142  121.1710  -32.5849 H         3        0    0.0000
     22 H         150.4245  120.2767  -32.7174 H         3        0    0.0000
     23 H         151.7032  122.2119  -31.8113 H         3        0    0.0000
     24 H         150.2503  123.2054  -31.7940 H         3        0    0.0000
     25 C         150.2875  121.6735  -30.2379 C.3       4        0    0.0000
     26 C         150.8923  122.5787  -29.1591 C.3       4        0    0.0000
     27 H         149.1982  121.6220  -30.1185 H         4        0    0.0000
     28 H         150.6654  120.6497  -30.1252 H         4        0    0.0000
     29 H         151.9821  122.6264  -29.2757 H         4        0    0.0000
     30 H         150.5179  123.6034  -29.2746 H         4        0    0.0000
     31 C         150.5606  122.0798  -27.7104 C.3       5        0    0.0000
     32 C         151.1614  122.9877  -26.6316 C.3       5        0    0.0000
     33 H         149.4708  122.0287  -27.5949 H         5        0    0.0000
     34 H         150.9381  121.0563  -27.5938 H         5        0    0.0000
     35 H         152.2513  123.0376  -26.7463 H         5        0    0.0000
     36 H         150.7851  124.0114  -26.7492 H         5        0    0.0000
     37 C         150.8280  122.4899  -25.1830 C.3       6        0    0.0000
     38 C         151.4530  123.3814  -24.1043 C.3       6        0    0.0000
     39 H         149.7381  122.4602  -25.0614 H         6        0    0.0000
     40 H         151.1855  121.4587  -25.0724 H         6        0    0.0000
     41 H         152.5426  123.4135  -24.2277 H         6        0    0.0000
     42 H         151.0932  124.4120  -24.2130 H         6        0    0.0000
     43 C         151.1231  122.8812  -22.6557 C.3       7        0    0.0000
     44 C         151.1029  124.0258  -21.6365 C.3       7        0    0.0000
     45 H         150.1510  122.3730  -22.6699 H         7        0    0.0000
     46 H         151.8671  122.1300  -22.3630 H         7        0    0.0000
     47 H         152.1035  124.4666  -21.5460 H         7        0    0.0000
     48 H         150.4364  124.8256  -21.9822 H         7        0    0.0000
     49 C         150.6299  123.5511  -20.2193 C.3       8        0    0.0000
     50 C         151.6157  123.9477  -19.1149 C.3       8        0    0.0000
     51 H         149.6418  123.9814  -20.0139 H         8        0    0.0000
     52 H         150.5018  122.4617  -20.2359 H         8        0    0.0000
     53 H         152.6461  123.8611  -19.4815 H         8        0    0.0000
     54 H         151.4672  124.9987  -18.8377 H         8        0    0.0000
     55 C         151.4596  123.0599  -17.8323 C.3       9        0    0.0000
     56 C         151.1814  123.8955  -16.5779 C.3       9        0    0.0000
     57 H         150.6451  122.3433  -17.9952 H         9        0    0.0000
     58 H         152.3750  122.4707  -17.6965 H         9        0    0.0000
     59 H         152.1052  124.3774  -16.2344 H         9        0    0.0000
     60 H         150.4740  124.7007  -16.8116 H         9        0    0.0000
     61 C         150.5962  123.0327  -15.4071 C.3      10        0    0.0000
     62 C         151.0432  123.5404  -14.0318 C.3      10        0    0.0000
     63 H         149.5013  123.0422  -15.4740 H        10        0    0.0000
     64 H         150.9111  121.9908  -15.5441 H        10        0    0.0000
     65 H         152.1314  123.6789  -14.0174 H        10        0    0.0000
     66 H         150.5979  124.5226  -13.8305 H        10        0    0.0000
     67 C         150.6435  122.5582  -12.8773 C.3      11        0    0.0000
     68 C         150.9029  123.1562  -11.4901 C.3      11        0    0.0000
     69 H         149.5824  122.3008  -12.9835 H        11        0    0.0000
     70 H         151.2075  121.6247  -12.9960 H        11        0    0.0000
     71 H         151.9708  123.3765  -11.3692 H        11        0    0.0000
     72 H         150.3708  124.1099  -11.3861 H        11        0    0.0000
     73 C         150.4510  122.1968  -10.3356 C.3      12        0    0.0000
     74 C         150.7176  122.7915   -8.9484 C.3      12        0    0.0000
     75 H         149.3819  121.9810  -10.4533 H        12        0    0.0000
     76 H         150.9790  121.2411  -10.4430 H        12        0    0.0000
     77 H         151.7858  123.0132   -8.8331 H        12        0    0.0000
     78 H         150.1845  123.7440   -8.8387 H        12        0    0.0000
     79 C         150.2739  121.8283   -7.7939 C.3      13        0    0.0000
     80 C         150.5433  122.4217   -6.4067 C.3      13        0    0.0000
     81 H         149.2052  121.6084   -7.9079 H        13        0    0.0000
     82 H         150.8053  120.8750   -7.9049 H        13        0    0.0000
     83 H         151.6122  122.6410   -6.2924 H        13        0    0.0000
     84 H         150.0124  123.3753   -6.2959 H        13        0    0.0000
     85 C         150.0989  121.4589   -5.2521 C.3      14        0    0.0000
     86 C         150.3714  122.0508   -3.8649 C.3      14        0    0.0000
     87 H         149.0295  121.2415   -5.3649 H        14        0    0.0000
     88 H         150.6279  120.5044   -5.3643 H        14        0    0.0000
     89 H         151.4421  122.2597   -3.7488 H        14        0    0.0000
     90 H         149.8497  123.0098   -3.7560 H        14        0    0.0000
     91 C         149.9152  121.0935   -2.7104 C.3      15        0    0.0000
     92 C         150.2038  121.6778   -1.3232 C.3      15        0    0.0000
     93 H         148.8418  120.8949   -2.8191 H        15        0    0.0000
     94 H         150.4272  120.1302   -2.8267 H        15        0    0.0000
     95 H         151.2713  121.9120   -1.2283 H        15        0    0.0000
     96 H         149.6613  122.6224   -1.1926 H        15        0    0.0000
     97 C         149.7970  120.6977   -0.1693 C.3      16        0    0.0000
     98 C         150.4011  121.1053    1.1790 C.3      16        0    0.0000
     99 H         148.7026  120.6701   -0.0982 H        16        0    0.0000
    100 H         150.1211  119.6840   -0.4357 H        16        0    0.0000
    101 H         151.2649  121.7628    1.0208 H        16        0    0.0000
    102 H         149.6698  121.6804    1.7604 H        16        0    0.0000
    103 C         150.8571  119.8665    2.0245 C.3      17        0    0.0000
    104 C         151.6561  120.2738    3.2673 C.3      17        0    0.0000
    105 H         149.9692  119.2934    2.3192 H        17        0    0.0000
    106 H         151.4608  119.2072    1.3886 H        17        0    0.0000
    107 H         152.5483  120.8398    2.9721 H        17        0    0.0000
    108 H         151.0554  120.9398    3.8992 H        17        0    0.0000
    109 C         152.1020  119.0356    4.1191 C.3      18        0    0.0000
    110 C         152.8474  119.4457    5.3940 C.3      18        0    0.0000
    111 H         151.2140  118.4449    4.3761 H        18        0    0.0000
    112 H         152.7402  118.3923    3.5007 H        18        0    0.0000
    113 H         153.7497  120.0138    5.1360 H        18        0    0.0000
    114 H         152.2190  120.1104    5.9998 H        18        0    0.0000
    115 C         153.2606  118.2091    6.2644 C.3      19        0    0.0000
    116 C         153.9935  118.6199    7.5463 C.3      19        0    0.0000
    117 H         152.3594  117.6353    6.5138 H        19        0    0.0000
    118 H         153.8973  117.5495    5.6619 H        19        0    0.0000
    119 H         154.8977  119.1888    7.2967 H        19        0    0.0000
    120 H         153.3589  119.2841    8.1460 H        19        0    0.0000
    121 C         154.3995  117.3837    8.4206 C.3      20        0    0.0000
    122 C         155.1332  117.7945    9.7020 C.3      20        0    0.0000
    123 H         153.4952  116.8152    8.6707 H        20        0    0.0000
    124 H         155.0336  116.7192    7.8207 H        20        0    0.0000
    125 H         156.0376  118.3628    9.4520 H        20        0    0.0000
    126 H         154.4992  118.4593   10.3018 H        20        0    0.0000
    127 C         155.5388  116.5584   10.5767 C.3      21        0    0.0000
    128 C         156.2690  116.9693   11.8600 C.3      21        0    0.0000
    129 H         154.6346  115.9885   10.8244 H        21        0    0.0000
    130 H         156.1750  115.8950    9.9778 H        21        0    0.0000
    131 H         157.1735  117.5386   11.6122 H        21        0    0.0000
    132 H         155.6330  117.6332   12.4585 H        21        0    0.0000
    133 C         156.6738  115.7332   12.7350 C.3      22        0    0.0000
    134 C         157.4779  116.1380   13.9754 C.3      22        0    0.0000
    135 H         155.7637  115.1988   13.0345 H        22        0    0.0000
    136 H         157.2580  115.0393   12.1180 H        22        0    0.0000
    137 H         156.8358  116.6826   14.6787 H        22        0    0.0000
    138 H         157.8337  115.2435   14.5015 H        22        0    0.0000
    139 C         158.7110  117.0372   13.6167 C.3      23        0    0.0000
    140 C         160.0288  116.4482   14.1319 C.3      23        0    0.0000
    141 H         158.7542  117.1598   12.5274 H        23        0    0.0000
    142 H         158.5547  118.0370   14.0403 H        23        0    0.0000
    143 H         159.9856  116.3256   15.2213 H        23        0    0.0000
    144 H         160.1851  115.4484   13.7083 H        23        0    0.0000
    145 H         160.8861  117.0734   13.8825 H        23        0    0.0000
    146 H         149.2798  122.4687  -40.4349 H         0        0    0.0000
@<TRIPOS>BOND
     1     1     2      1
     2     1     3      1
     3     1     4      1
     4     1   146      H
     5     2     5      1
     6     2     6      1
     7     2     7      1
     8     7     8      1
     9     7     9      1
    10     7    10      1
    11     8    11      1
    12     8    12      1
    13     8    13      1
    14    13    14      1
    15    13    15      1
    16    13    16      1
    17    14    17      1
    18    14    18      1
    19    14    19      1
    20    19    20      1
    21    19    21      1
    22    19    22      1
    23    20    23      1
    24    20    24      1
    25    20    25      1
    26    25    26      1
    27    25    27      1
    28    25    28      1
    29    26    29      1
    30    26    30      1
    31    26    31      1
    32    31    32      1
    33    31    33      1
    34    31    34      1
    35    32    35      1
    36    32    36      1
    37    32    37      1
    38    37    38      1
    39    37    39      1
    40    37    40      1
    41    38    41      1
    42    38    42      1
    43    38    43      1
    44    43    44      1
    45    43    45      1
    46    43    46      1
    47    44    47      1
    48    44    48      1
    49    44    49      1
    50    49    50      1
    51    49    51      1
    52    49    52      1
    53    50    53      1
    54    50    54      1
    55    50    55      1
    56    55    56      1
    57    55    57      1
    58    55    58      1
    59    56    59      1
    60    56    60      1
    61    56    61      1
    62    61    62      1
    63    61    63      1
    64    61    64      1
    65    62    65      1
    66    62    66      1
    67    62    67      1
    68    67    68      1
    69    67    69      1
    70    67    70      1
    71    68    71      1
    72    68    72      1
    73    68    73      1
    74    73    74      1
    75    73    75      1
    76    73    76      1
    77    74    77      1
    78    74    78      1
    79    74    79      1
    80    79    80      1
    81    79    81      1
    82    79    82      1
    83    80    83      1
    84    80    84      1
    85    80    85      1
    86    85    86      1
    87    85    87      1
    88    85    88      1
    89    86    89      1
    90    86    90      1
    91    86    91      1
    92    91    92      1
    93    91    93      1
    94    91    94      1
    95    92    95      1
    96    92    96      1
    97    92    97      1
    98    97    98      1
    99    97    99      1
   100    97   100      1
   101    98   101      1
   102    98   102      1
   103    98   103      1
   104   103   104      1
   105   103   105      1
   106   103   106      1
   107   104   107      1
   108   104   108      1
   109   104   109      1
   110   109   110      1
   111   109   111      1
   112   109   112      1
   113   110   113      1
   114   110   114      1
   115   110   115      1
   116   115   116      1
   117   115   117      1
   118   115   118      1
   119   116   119      1
   120   116   120      1
   121   116   121      1
   122   121   122      1
   123   121   123      1
   124   121   124      1
   125   122   125      1
   126   122   126      1
   127   122   127      1
   128   127   128      1
   129   127   129      1
   130   127   130      1
   131   128   131      1
   132   128   132      1
   133   128   133      1
   134   133   134      1
   135   133   135      1
   136   133   136      1
   137   134   137      1
   138   134   138      1
   139   134   139      1
   140   139   140      1
   141   139   141      1
   142   139   142      1
   143   140   143      1
   144   140   144      1
   145   140   145      H
