###
### Created by PolyChef-cpp17 on Thu Feb 27 19:40:30 2025
###

@<TRIPOS>MOLECULE
NO_INFO
164 163 1 0 0
SMALL
USER_CHARGES


@<TRIPOS>ATOM
      1 C         129.2798   87.8287  120.6551 C.3       0        0    0.0000
      2 C         128.4513   86.6775  120.0742 C.3       0        0    0.0000
      3 H         128.8875   88.7902  120.3015 H         0        0    0.0000
      4 H         130.3161   87.7621  120.3014 H         0        0    0.0000
      5 H         128.4069   85.8474  120.7901 H         0        0    0.0000
      6 H         127.4177   87.0049  119.9070 H         0        0    0.0000
      7 C         129.0383   86.1468  118.7210 C.3       1        0    0.0000
      8 C         129.6369   87.2702  117.8672 C.3       1        0    0.0000
      9 H         129.8037   85.3918  118.9395 H         1        0    0.0000
     10 H         128.2416   85.6362  118.1659 H         1        0    0.0000
     11 H         128.9480   88.1232  117.8314 H         1        0    0.0000
     12 H         130.5660   87.6345  118.3227 H         1        0    0.0000
     13 C         129.9413   86.8046  116.4016 C.3       2        0    0.0000
     14 C         129.8972   87.9659  115.4023 C.3       2        0    0.0000
     15 H         130.9289   86.3273  116.3802 H         2        0    0.0000
     16 H         129.2132   86.0351  116.1165 H         2        0    0.0000
     17 H         128.9813   88.5522  115.5472 H         2        0    0.0000
     18 H         130.7386   88.6470  115.5797 H         2        0    0.0000
     19 C         129.9513   87.4724  113.9153 C.3       3        0    0.0000
     20 C         129.8113   88.6254  112.9153 C.3       3        0    0.0000
     21 H         130.8996   86.9457  113.7518 H         3        0    0.0000
     22 H         129.1517   86.7381  113.7571 H         3        0    0.0000
     23 H         128.8700   89.1616  113.0886 H         3        0    0.0000
     24 H         130.6197   89.3521  113.0635 H         3        0    0.0000
     25 C         129.8440   88.1296  111.4285 C.3       4        0    0.0000
     26 C         129.9863   89.2865  110.4333 C.3       4        0    0.0000
     27 H         130.6769   87.4257  111.3087 H         4        0    0.0000
     28 H         128.9245   87.5676  111.2229 H         4        0    0.0000
     29 H         129.1332   89.9699  110.5264 H         4        0    0.0000
     30 H         130.8853   89.8718  110.6631 H         4        0    0.0000
     31 C         130.0741   88.7869  108.9501 C.3       5        0    0.0000
     32 C         129.0963   89.5256  108.0295 C.3       5        0    0.0000
     33 H         131.1023   88.9212  108.5920 H         5        0    0.0000
     34 H         129.8708   87.7091  108.9273 H         5        0    0.0000
     35 H         128.1302   89.6547  108.5331 H         5        0    0.0000
     36 H         129.4739   90.5318  107.8096 H         5        0    0.0000
     37 C         128.8640   88.7663  106.6778 C.3       6        0    0.0000
     38 C         129.3434   89.5752  105.4675 C.3       6        0    0.0000
     39 H         129.3884   87.8036  106.7184 H         6        0    0.0000
     40 H         127.7953   88.5391  106.5790 H         6        0    0.0000
     41 H         128.5435   90.2398  105.1185 H         6        0    0.0000
     42 H         130.1847   90.2183  105.7542 H         6        0    0.0000
     43 C         129.7918   88.6567  104.2789 C.3       7        0    0.0000
     44 C         129.3147   89.1876  102.9226 C.3       7        0    0.0000
     45 H         130.8858   88.5760  104.2876 H         7        0    0.0000
     46 H         129.4000   87.6457  104.4460 H         7        0    0.0000
     47 H         128.2526   89.4569  102.9765 H         7        0    0.0000
     48 H         129.8594   90.1043  102.6647 H         7        0    0.0000
     49 C         129.5129   88.1414  101.7720 C.3       8        0    0.0000
     50 C         129.3859   88.7753  100.3824 C.3       8        0    0.0000
     51 H         130.4997   87.6753  101.8841 H         8        0    0.0000
     52 H         128.7715   87.3415  101.8898 H         8        0    0.0000
     53 H         128.3753   89.1794  100.2442 H         8        0    0.0000
     54 H         130.0786   89.6209  100.2899 H         8        0    0.0000
     55 C         129.6822   87.7513   99.2330 C.3       9        0    0.0000
     56 C         129.5143   88.3742   97.8427 C.3       9        0    0.0000
     57 H         130.7038   87.3703   99.3536 H         9        0    0.0000
     58 H         129.0100   86.8914   99.3436 H         9        0    0.0000
     59 H         128.4954   88.7637   97.7255 H         9        0    0.0000
     60 H         130.1931   89.2283   97.7286 H         9        0    0.0000
     61 C         129.7976   87.3466   96.6932 C.3      10        0    0.0000
     62 C         129.6189   87.9664   95.3029 C.3      10        0    0.0000
     63 H         130.8193   86.9631   96.8056 H        10        0    0.0000
     64 H         129.1243   86.4886   96.8119 H        10        0    0.0000
     65 H         128.5964   88.3475   95.1896 H        10        0    0.0000
     66 H         130.2903   88.8260   95.1851 H        10        0    0.0000
     67 C         129.9058   86.9399   94.1534 C.3      11        0    0.0000
     68 C         129.7272   87.5597   92.7631 C.3      11        0    0.0000
     69 H         130.9283   86.5587   94.2668 H        11        0    0.0000
     70 H         129.2344   86.0803   94.2712 H        11        0    0.0000
     71 H         128.7044   87.9397   92.6493 H        11        0    0.0000
     72 H         130.3977   88.4200   92.6458 H        11        0    0.0000
     73 C         130.0159   86.5337   91.6136 C.3      12        0    0.0000
     74 C         129.8434   87.1552   90.2233 C.3      12        0    0.0000
     75 H         131.0371   86.1502   91.7302 H        12        0    0.0000
     76 H         129.3421   85.6755   91.7282 H        12        0    0.0000
     77 H         128.8217   87.5372   90.1061 H        12        0    0.0000
     78 H         130.5159   88.0145   90.1094 H        12        0    0.0000
     79 C         130.1345   86.1298   89.0739 C.3      13        0    0.0000
     80 C         129.9574   86.7501   87.6835 C.3      13        0    0.0000
     81 H         131.1574   85.7505   89.1890 H        13        0    0.0000
     82 H         129.4644   85.2690   89.1899 H        13        0    0.0000
     83 H         128.9359   87.1340   87.5703 H        13        0    0.0000
     84 H         130.6312   87.6078   87.5657 H        13        0    0.0000
     85 C         130.2413   85.7227   86.5341 C.3      14        0    0.0000
     86 C         130.0697   86.3445   85.1438 C.3      14        0    0.0000
     87 H         131.2613   85.3356   86.6498 H        14        0    0.0000
     88 H         129.5647   84.8669   86.6495 H        14        0    0.0000
     89 H         129.0489   86.7289   85.0270 H        14        0    0.0000
     90 H         130.7444   87.2020   85.0293 H        14        0    0.0000
     91 C         130.3577   85.3182   83.9943 C.3      15        0    0.0000
     92 C         130.1900   85.9411   82.6040 C.3      15        0    0.0000
     93 H         131.3775   84.9315   84.1127 H        15        0    0.0000
     94 H         129.6811   84.4620   84.1070 H        15        0    0.0000
     95 H         129.2139   86.4363   82.5289 H        15        0    0.0000
     96 H         130.9496   86.7164   82.4450 H        15        0    0.0000
     97 C         130.3062   84.8773   81.4584 C.3      16        0    0.0000
     98 C         130.1623   85.5039   80.0671 C.3      16        0    0.0000
     99 H         131.2751   84.3699   81.5441 H        16        0    0.0000
    100 H         129.5352   84.1113   81.6076 H        16        0    0.0000
    101 H         131.0727   85.3299   79.4802 H        16        0    0.0000
    102 H         129.3397   85.0246   79.5220 H        16        0    0.0000
    103 C         129.8922   87.0465   80.1353 C.3      17        0    0.0000
    104 C         129.2947   87.5898   78.8327 C.3      17        0    0.0000
    105 H         129.2145   87.2501   80.9737 H        17        0    0.0000
    106 H         130.8348   87.5609   80.3601 H        17        0    0.0000
    107 H         130.0971   87.8794   78.1429 H        17        0    0.0000
    108 H         128.7143   86.8064   78.3297 H        17        0    0.0000
    109 C         128.3661   88.8290   79.0764 C.3      18        0    0.0000
    110 C         127.8361   89.4242   77.7672 C.3      18        0    0.0000
    111 H         127.5292   88.5233   79.7166 H        18        0    0.0000
    112 H         128.9285   89.5880   79.6342 H        18        0    0.0000
    113 H         128.5767   89.2947   76.9682 H        18        0    0.0000
    114 H         126.9328   88.8890   77.4492 H        18        0    0.0000
    115 C         127.4990   90.9492   77.9015 C.3      19        0    0.0000
    116 C         127.0506   91.5643   76.5712 C.3      19        0    0.0000
    117 H         126.7129   91.0724   78.6567 H        19        0    0.0000
    118 H         128.3844   91.4751   78.2796 H        19        0    0.0000
    119 H         126.0700   91.1650   76.2837 H        19        0    0.0000
    120 H         126.9294   92.6491   76.6802 H        19        0    0.0000
    121 C         128.0696   91.2835   75.4135 C.3      20        0    0.0000
    122 C         127.5213   91.6985   74.0437 C.3      20        0    0.0000
    123 H         129.0017   91.8222   75.6244 H        20        0    0.0000
    124 H         128.3170   90.2147   75.4115 H        20        0    0.0000
    125 H         126.7009   91.0323   73.7494 H        20        0    0.0000
    126 H         127.1015   92.7106   74.0975 H        20        0    0.0000
    127 C         128.6226   91.6669   72.9285 C.3      21        0    0.0000
    128 C         128.0832   92.1176   71.5665 C.3      21        0    0.0000
    129 H         129.4553   92.3119   73.2355 H        21        0    0.0000
    130 H         129.0233   90.6482   72.8560 H        21        0    0.0000
    131 H         127.4182   91.3496   71.1525 H        21        0    0.0000
    132 H         127.4805   93.0269   71.6828 H        21        0    0.0000
    133 C         129.2310   92.4005   70.5370 C.3      22        0    0.0000
    134 C         128.6913   92.8425   69.1723 C.3      22        0    0.0000
    135 H         129.8923   93.1733   70.9482 H        22        0    0.0000
    136 H         129.8378   91.4933   70.4258 H        22        0    0.0000
    137 H         127.8402   92.2137   68.8829 H        22        0    0.0000
    138 H         128.3168   93.8719   69.2313 H        22        0    0.0000
    139 C         129.7819   92.7651   68.0488 C.3      23        0    0.0000
    140 C         129.2548   93.2491   66.6934 C.3      23        0    0.0000
    141 H         130.6465   93.3677   68.3532 H        23        0    0.0000
    142 H         130.1330   91.7289   67.9676 H        23        0    0.0000
    143 H         129.8250   94.1247   66.3590 H        23        0    0.0000
    144 H         129.3988   92.4706   65.9340 H        23        0    0.0000
    145 C         127.7344   93.6270   66.7478 C.3      24        0    0.0000
    146 C         127.2663   94.3368   65.4727 C.3      24        0    0.0000
    147 H         127.1484   92.7132   66.9063 H        24        0    0.0000
    148 H         127.5604   94.2682   67.6208 H        24        0    0.0000
    149 H         126.2943   93.9389   65.1559 H        24        0    0.0000
    150 H         127.1200   95.4061   65.6695 H        24        0    0.0000
    151 C         128.2870   94.1751   64.2939 C.3      25        0    0.0000
    152 C         127.8683   94.9670   63.0502 C.3      25        0    0.0000
    153 H         129.2760   94.5053   64.6348 H        25        0    0.0000
    154 H         128.3778   93.1097   64.0485 H        25        0    0.0000
    155 H         128.6540   94.9112   62.2866 H        25        0    0.0000
    156 H         126.9672   94.5242   62.6081 H        25        0    0.0000
    157 C         127.5841   96.4744   63.3736 C.3      26        0    0.0000
    158 C         128.4256   97.4220   62.5116 C.3      26        0    0.0000
    159 H         126.5164   96.6739   63.2194 H        26        0    0.0000
    160 H         127.7876   96.6524   64.4368 H        26        0    0.0000
    161 H         129.4933   97.2224   62.6657 H        26        0    0.0000
    162 H         128.2221   97.2439   61.4484 H        26        0    0.0000
    163 H         128.2281   98.4701   62.7364 H        26        0    0.0000
    164 H         129.2798   87.8287  121.7450 H         0        0    0.0000
@<TRIPOS>BOND
     1     1     2      1
     2     1     3      1
     3     1     4      1
     4     1   164      H
     5     2     5      1
     6     2     6      1
     7     2     7      1
     8     7     8      1
     9     7     9      1
    10     7    10      1
    11     8    11      1
    12     8    12      1
    13     8    13      1
    14    13    14      1
    15    13    15      1
    16    13    16      1
    17    14    17      1
    18    14    18      1
    19    14    19      1
    20    19    20      1
    21    19    21      1
    22    19    22      1
    23    20    23      1
    24    20    24      1
    25    20    25      1
    26    25    26      1
    27    25    27      1
    28    25    28      1
    29    26    29      1
    30    26    30      1
    31    26    31      1
    32    31    32      1
    33    31    33      1
    34    31    34      1
    35    32    35      1
    36    32    36      1
    37    32    37      1
    38    37    38      1
    39    37    39      1
    40    37    40      1
    41    38    41      1
    42    38    42      1
    43    38    43      1
    44    43    44      1
    45    43    45      1
    46    43    46      1
    47    44    47      1
    48    44    48      1
    49    44    49      1
    50    49    50      1
    51    49    51      1
    52    49    52      1
    53    50    53      1
    54    50    54      1
    55    50    55      1
    56    55    56      1
    57    55    57      1
    58    55    58      1
    59    56    59      1
    60    56    60      1
    61    56    61      1
    62    61    62      1
    63    61    63      1
    64    61    64      1
    65    62    65      1
    66    62    66      1
    67    62    67      1
    68    67    68      1
    69    67    69      1
    70    67    70      1
    71    68    71      1
    72    68    72      1
    73    68    73      1
    74    73    74      1
    75    73    75      1
    76    73    76      1
    77    74    77      1
    78    74    78      1
    79    74    79      1
    80    79    80      1
    81    79    81      1
    82    79    82      1
    83    80    83      1
    84    80    84      1
    85    80    85      1
    86    85    86      1
    87    85    87      1
    88    85    88      1
    89    86    89      1
    90    86    90      1
    91    86    91      1
    92    91    92      1
    93    91    93      1
    94    91    94      1
    95    92    95      1
    96    92    96      1
    97    92    97      1
    98    97    98      1
    99    97    99      1
   100    97   100      1
   101    98   101      1
   102    98   102      1
   103    98   103      1
   104   103   104      1
   105   103   105      1
   106   103   106      1
   107   104   107      1
   108   104   108      1
   109   104   109      1
   110   109   110      1
   111   109   111      1
   112   109   112      1
   113   110   113      1
   114   110   114      1
   115   110   115      1
   116   115   116      1
   117   115   117      1
   118   115   118      1
   119   116   119      1
   120   116   120      1
   121   116   121      1
   122   121   122      1
   123   121   123      1
   124   121   124      1
   125   122   125      1
   126   122   126      1
   127   122   127      1
   128   127   128      1
   129   127   129      1
   130   127   130      1
   131   128   131      1
   132   128   132      1
   133   128   133      1
   134   133   134      1
   135   133   135      1
   136   133   136      1
   137   134   137      1
   138   134   138      1
   139   134   139      1
   140   139   140      1
   141   139   141      1
   142   139   142      1
   143   140   143      1
   144   140   144      1
   145   140   145      1
   146   145   146      1
   147   145   147      1
   148   145   148      1
   149   146   149      1
   150   146   150      1
   151   146   151      1
   152   151   152      1
   153   151   153      1
   154   151   154      1
   155   152   155      1
   156   152   156      1
   157   152   157      1
   158   157   158      1
   159   157   159      1
   160   157   160      1
   161   158   161      1
   162   158   162      1
   163   158   163      H
