###
### Created by PolyChef-cpp17 on Thu Feb 27 19:40:28 2025
###

@<TRIPOS>MOLECULE
NO_INFO
284 283 1 0 0
SMALL
USER_CHARGES


@<TRIPOS>ATOM
      1 C         169.2798   53.1887  -39.3449 C.3       0        0    0.0000
      2 C         167.8706   53.0282  -38.7641 C.3       0        0    0.0000
      3 H         169.9271   52.3766  -38.9913 H         0        0    0.0000
      4 H         169.7280   54.1255  -38.9913 H         0        0    0.0000
      5 H         167.3720   54.0040  -38.7114 H         0        0    0.0000
      6 H         167.2612   52.3984  -39.4240 H         0        0    0.0000
      7 C         167.8873   52.3913  -37.3318 C.3       1        0    0.0000
      8 C         169.1652   52.7347  -36.5583 C.3       1        0    0.0000
      9 H         167.0072   52.7418  -36.7786 H         1        0    0.0000
     10 H         167.7865   51.3031  -37.4274 H         1        0    0.0000
     11 H         170.0453   52.5607  -37.1898 H         1        0    0.0000
     12 H         169.1713   53.7999  -36.2960 H         1        0    0.0000
     13 C         169.3102   51.8902  -35.2456 C.3       2        0    0.0000
     14 C         170.2035   52.5786  -34.2078 C.3       2        0    0.0000
     15 H         168.3119   51.7151  -34.8258 H         2        0    0.0000
     16 H         169.7213   50.9059  -35.5020 H         2        0    0.0000
     17 H         171.2589   52.4634  -34.4842 H         2        0    0.0000
     18 H         169.9982   53.6561  -34.1903 H         2        0    0.0000
     19 C         169.9929   52.0007  -32.7658 C.3       3        0    0.0000
     20 C         170.6088   52.8965  -31.6854 C.3       3        0    0.0000
     21 H         168.9172   51.8805  -32.5867 H         3        0    0.0000
     22 H         170.4341   50.9974  -32.7191 H         3        0    0.0000
     23 H         171.6980   52.9400  -31.8088 H         3        0    0.0000
     24 H         170.2384   53.9236  -31.7922 H         3        0    0.0000
     25 C         170.2841   52.3902  -30.2378 C.3       4        0    0.0000
     26 C         170.8811   53.2984  -29.1572 C.3       4        0    0.0000
     27 H         169.1950   52.3310  -30.1198 H         4        0    0.0000
     28 H         170.6690   51.3690  -30.1257 H         4        0    0.0000
     29 H         171.9710   53.3518  -29.2707 H         4        0    0.0000
     30 H         170.5018   54.3212  -29.2736 H         4        0    0.0000
     31 C         170.5479   52.7977  -27.7095 C.3       5        0    0.0000
     32 C         171.1614   53.6950  -26.6290 C.3       5        0    0.0000
     33 H         169.4580   52.7579  -27.5912 H         5        0    0.0000
     34 H         170.9147   51.7698  -27.5977 H         5        0    0.0000
     35 H         172.2511   53.7371  -26.7491 H         5        0    0.0000
     36 H         170.7924   54.7222  -26.7389 H         5        0    0.0000
     37 C         170.8317   53.1919  -25.1813 C.3       6        0    0.0000
     38 C         171.3917   54.1237  -24.1010 C.3       6        0    0.0000
     39 H         169.7431   53.1056  -25.0763 H         6        0    0.0000
     40 H         171.2413   52.1819  -25.0561 H         6        0    0.0000
     41 H         172.4813   54.2032  -24.2006 H         6        0    0.0000
     42 H         170.9888   55.1357  -24.2314 H         6        0    0.0000
     43 C         171.0515   53.6271  -22.6535 C.3       7        0    0.0000
     44 C         172.1201   54.0350  -21.6334 C.3       7        0    0.0000
     45 H         170.0762   54.0346  -22.3600 H         7        0    0.0000
     46 H         170.9447   52.5354  -22.6702 H         7        0    0.0000
     47 H         173.1128   53.7278  -21.9852 H         7        0    0.0000
     48 H         172.1459   55.1271  -21.5319 H         7        0    0.0000
     49 C         171.8661   53.4023  -20.2218 C.3       8        0    0.0000
     50 C         171.8477   54.4552  -19.1081 C.3       8        0    0.0000
     51 H         170.9122   52.8609  -20.2434 H         8        0    0.0000
     52 H         172.6466   52.6576  -20.0224 H         8        0    0.0000
     53 H         172.8736   54.7278  -18.8311 H         8        0    0.0000
     54 H         171.3636   55.3725  -19.4656 H         8        0    0.0000
     55 C         171.0952   53.9528  -17.8279 C.3       9        0    0.0000
     56 C         171.9587   54.0619  -16.5664 C.3       9        0    0.0000
     57 H         170.1754   54.5380  -17.7059 H         9        0    0.0000
     58 H         170.7877   52.9114  -17.9844 H         9        0    0.0000
     59 H         172.9840   53.7372  -16.7830 H         9        0    0.0000
     60 H         172.0214   55.1082  -16.2427 H         9        0    0.0000
     61 C         171.3950   53.2002  -15.3843 C.3      10        0    0.0000
     62 C         171.6925   53.8250  -14.0167 C.3      10        0    0.0000
     63 H         170.3122   53.0833  -15.5169 H        10        0    0.0000
     64 H         171.8297   52.1946  -15.4410 H        10        0    0.0000
     65 H         172.7720   53.8075  -13.8220 H        10        0    0.0000
     66 H         171.3883   54.8790  -14.0105 H        10        0    0.0000
     67 C         170.9565   53.0798  -12.8504 C.3      11        0    0.0000
     68 C         171.4164   53.5632  -11.4706 C.3      11        0    0.0000
     69 H         169.8755   53.2307  -12.9608 H        11        0    0.0000
     70 H         171.1360   52.0021  -12.9504 H        11        0    0.0000
     71 H         172.5037   53.4521  -11.3762 H        11        0    0.0000
     72 H         171.1977   54.6320  -11.3543 H        11        0    0.0000
     73 C         170.7250   52.7762  -10.3044 C.3      12        0    0.0000
     74 C         171.1696   53.2733   -8.9245 C.3      12        0    0.0000
     75 H         169.6372   52.8750  -10.4073 H        12        0    0.0000
     76 H         170.9560   51.7092  -10.4122 H        12        0    0.0000
     77 H         172.2567   53.1699   -8.8197 H        12        0    0.0000
     78 H         170.9431   54.3415   -8.8185 H        12        0    0.0000
     79 C         170.4729   52.4910   -7.7583 C.3      13        0    0.0000
     80 C         170.9017   53.0021   -6.3784 C.3      13        0    0.0000
     81 H         169.3855   52.5816   -7.8718 H        13        0    0.0000
     82 H         170.7120   51.4247   -7.8555 H        13        0    0.0000
     83 H         171.9876   52.9002   -6.2603 H        13        0    0.0000
     84 H         170.6736   54.0711   -6.2857 H        13        0    0.0000
     85 C         170.1922   52.2310   -5.2125 C.3      14        0    0.0000
     86 C         170.5659   52.7893   -3.8349 C.3      14        0    0.0000
     87 H         169.1066   52.2885   -5.3597 H        14        0    0.0000
     88 H         170.4627   51.1697   -5.2743 H        14        0    0.0000
     89 H         171.6446   52.6826   -3.6658 H        14        0    0.0000
     90 H         170.3450   53.8630   -3.7916 H        14        0    0.0000
     91 C         169.7986   52.0683   -2.6735 C.3      15        0    0.0000
     92 C         170.2675   52.5339   -1.2906 C.3      15        0    0.0000
     93 H         168.7240   52.2564   -2.7894 H        15        0    0.0000
     94 H         169.9415   50.9852   -2.7742 H        15        0    0.0000
     95 H         171.3618   52.6087   -1.2699 H        15        0    0.0000
     96 H         169.8790   53.5381   -1.0801 H        15        0    0.0000
     97 C         169.8057   51.5639   -0.1490 C.3      16        0    0.0000
     98 C         170.4742   51.8855    1.1922 C.3      16        0    0.0000
     99 H         168.7149   51.6277   -0.0505 H        16        0    0.0000
    100 H         170.0354   50.5332   -0.4463 H        16        0    0.0000
    101 H         171.5569   51.9980    1.0555 H        16        0    0.0000
    102 H         170.1040   52.8439    1.5768 H        16        0    0.0000
    103 C         170.2134   50.7748    2.2674 C.3      17        0    0.0000
    104 C         170.9360   51.0635    3.5878 C.3      17        0    0.0000
    105 H         169.1328   50.6960    2.4393 H        17        0    0.0000
    106 H         170.5395   49.8083    1.8636 H        17        0    0.0000
    107 H         172.0044   51.2310    3.4031 H        17        0    0.0000
    108 H         170.5456   51.9854    4.0365 H        17        0    0.0000
    109 C         170.7788   49.8935    4.6192 C.3      18        0    0.0000
    110 C         171.5971   50.1288    5.8936 C.3      18        0    0.0000
    111 H         169.7164   49.7830    4.8694 H        18        0    0.0000
    112 H         171.0889   48.9563    4.1407 H        18        0    0.0000
    113 H         172.6372   50.3629    5.6349 H        18        0    0.0000
    114 H         171.2048   50.9969    6.4377 H        18        0    0.0000
    115 C         171.5815   48.8851    6.8478 C.3      19        0    0.0000
    116 C         172.6558   48.9752    7.9371 C.3      19        0    0.0000
    117 H         170.5878   48.8030    7.3053 H        19        0    0.0000
    118 H         171.7283   47.9779    6.2486 H        19        0    0.0000
    119 H         173.6217   49.2435    7.4915 H        19        0    0.0000
    120 H         172.4046   49.7720    8.6482 H        19        0    0.0000
    121 C         172.8187   47.6290    8.7236 C.3      20        0    0.0000
    122 C         174.2801   47.3402    9.0843 C.3      20        0    0.0000
    123 H         172.2087   47.6754    9.6342 H        20        0    0.0000
    124 H         172.4132   46.8120    8.1140 H        20        0    0.0000
    125 H         174.9334   47.5964    8.2410 H        20        0    0.0000
    126 H         174.5912   47.9704    9.9266 H        20        0    0.0000
    127 C         174.5123   45.8373    9.4649 C.3      21        0    0.0000
    128 C         175.9499   45.3835    9.1886 C.3      21        0    0.0000
    129 H         174.2719   45.7001   10.5265 H        21        0    0.0000
    130 H         173.8065   45.2162    8.8994 H        21        0    0.0000
    131 H         176.2469   45.6724    8.1728 H        21        0    0.0000
    132 H         176.6419   45.8877    9.8745 H        21        0    0.0000
    133 C         176.1239   43.8334    9.3443 C.3      22        0    0.0000
    134 C         177.4017   43.3217    8.6701 C.3      22        0    0.0000
    135 H         176.1368   43.5845   10.4127 H        22        0    0.0000
    136 H         175.2464   43.3342    8.9151 H        22        0    0.0000
    137 H         177.4380   43.6600    7.6271 H        22        0    0.0000
    138 H         178.2841   43.7419    9.1685 H        22        0    0.0000
    139 C         177.5026   41.7576    8.6978 C.3      23        0    0.0000
    140 C         178.4171   41.2149    7.5941 C.3      23        0    0.0000
    141 H         177.8737   41.4445    9.6816 H        23        0    0.0000
    142 H         176.4951   41.3363    8.5925 H        23        0    0.0000
    143 H         178.1348   41.6462    6.6257 H        23        0    0.0000
    144 H         179.4547   41.5169    7.7830 H        23        0    0.0000
    145 C         178.3572   39.6520    7.4879 C.3      24        0    0.0000
    146 C         178.9735   39.1344    6.1836 C.3      24        0    0.0000
    147 H         178.8806   39.2187    8.3492 H        24        0    0.0000
    148 H         177.3103   39.3324    7.5621 H        24        0    0.0000
    149 H         178.5432   39.6675    5.3267 H        24        0    0.0000
    150 H         180.0518   39.3361    6.1710 H        24        0    0.0000
    151 C         178.7449   37.5958    5.9881 C.3      25        0    0.0000
    152 C         179.2315   37.1056    4.6199 C.3      25        0    0.0000
    153 H         179.2666   37.0564    6.7883 H        25        0    0.0000
    154 H         177.6760   37.3792    6.1070 H        25        0    0.0000
    155 H         178.8442   37.7576    3.8271 H        25        0    0.0000
    156 H         180.3258   37.1619    4.5675 H        25        0    0.0000
    157 C         178.7867   35.6318    4.3243 C.3      26        0    0.0000
    158 C         179.2118   35.1658    2.9274 C.3      26        0    0.0000
    159 H         179.2174   34.9725    5.0880 H        26        0    0.0000
    160 H         177.6966   35.5639    4.4278 H        26        0    0.0000
    161 H         180.3021   35.0517    2.8845 H        26        0    0.0000
    162 H         178.7832   34.1789    2.7134 H        26        0    0.0000
    163 C         178.7639   36.1652    1.8058 C.3      27        0    0.0000
    164 C         179.2331   35.7254    0.4146 C.3      27        0    0.0000
    165 H         177.6703   36.2506    1.8244 H        27        0    0.0000
    166 H         179.1615   37.1606    2.0397 H        27        0    0.0000
    167 H         178.7316   36.3218   -0.3575 H        27        0    0.0000
    168 H         180.3092   35.9090    0.3051 H        27        0    0.0000
    169 C         178.9495   34.2075    0.1443 C.3      28        0    0.0000
    170 C         179.5019   33.7453   -1.2086 C.3      28        0    0.0000
    171 H         179.3933   33.6152    0.9540 H        28        0    0.0000
    172 H         177.8666   34.0372    0.1865 H        28        0    0.0000
    173 H         180.5879   33.6049   -1.1433 H        28        0    0.0000
    174 H         179.0738   32.7715   -1.4768 H        28        0    0.0000
    175 C         179.1926   34.7668   -2.3568 C.3      29        0    0.0000
    176 C         179.9612   34.4448   -3.6432 C.3      29        0    0.0000
    177 H         178.1132   34.7626   -2.5525 H        29        0    0.0000
    178 H         179.4460   35.7762   -2.0099 H        29        0    0.0000
    179 H         180.9770   34.8554   -3.5873 H        29        0    0.0000
    180 H         180.0662   33.3587   -3.7568 H        29        0    0.0000
    181 C         179.2532   35.0200   -4.9181 C.3      30        0    0.0000
    182 C         179.9845   34.6397   -6.2101 C.3      30        0    0.0000
    183 H         178.2210   34.6493   -4.9469 H        30        0    0.0000
    184 H         179.1934   36.1117   -4.8271 H        30        0    0.0000
    185 H         180.9742   35.1124   -6.2353 H        30        0    0.0000
    186 H         180.1521   33.5559   -6.2424 H        30        0    0.0000
    187 C         179.1881   35.0662   -7.4912 C.3      31        0    0.0000
    188 C         179.9192   34.6852   -8.7833 C.3      31        0    0.0000
    189 H         178.1983   34.5938   -7.4658 H        31        0    0.0000
    190 H         179.0209   36.1499   -7.4592 H        31        0    0.0000
    191 H         180.9053   35.1650   -8.8130 H        31        0    0.0000
    192 H         180.0946   33.6026   -8.8111 H        31        0    0.0000
    193 C         179.1167   35.1001  -10.0644 C.3      32        0    0.0000
    194 C         179.8473   34.7183  -11.3565 C.3      32        0    0.0000
    195 H         178.1303   34.6208  -10.0344 H        32        0    0.0000
    196 H         178.9418   36.1827  -10.0370 H        32        0    0.0000
    197 H         180.8352   35.1946  -11.3848 H        32        0    0.0000
    198 H         180.0189   33.6351  -11.3857 H        32        0    0.0000
    199 C         179.0472   35.1379  -12.6376 C.3      33        0    0.0000
    200 C         179.7784   34.7571  -13.9297 C.3      33        0    0.0000
    201 H         178.0597   34.6609  -12.6097 H        33        0    0.0000
    202 H         178.8750   36.2209  -12.6081 H        33        0    0.0000
    203 H         180.7652   35.2356  -13.9586 H        33        0    0.0000
    204 H         179.9525   33.6743  -13.9583 H        33        0    0.0000
    205 C         178.9770   35.1740  -15.2108 C.3      34        0    0.0000
    206 C         179.7073   34.7917  -16.5029 C.3      34        0    0.0000
    207 H         177.9897   34.6965  -15.1813 H        34        0    0.0000
    208 H         178.8040   36.2570  -15.1829 H        34        0    0.0000
    209 H         180.6954   35.2675  -16.5314 H        34        0    0.0000
    210 H         179.8784   33.7084  -16.5319 H        34        0    0.0000
    211 C         178.9073   35.2113  -17.7840 C.3      35        0    0.0000
    212 C         179.6397   34.8329  -19.0761 C.3      35        0    0.0000
    213 H         177.9204   34.7329  -17.7572 H        35        0    0.0000
    214 H         178.7334   36.2941  -17.7535 H        35        0    0.0000
    215 H         180.6225   35.3194  -19.1077 H        35        0    0.0000
    216 H         179.8226   33.7515  -19.1020 H        35        0    0.0000
    217 C         178.8331   35.2398  -20.3572 C.3      36        0    0.0000
    218 C         179.5663   34.8629  -21.6493 C.3      36        0    0.0000
    219 H         177.8508   34.7522  -20.3263 H        36        0    0.0000
    220 H         178.6491   36.3210  -20.3307 H        36        0    0.0000
    221 H         180.5496   35.3485  -21.6791 H        36        0    0.0000
    222 H         179.7481   33.7814  -21.6769 H        36        0    0.0000
    223 C         178.7613   35.2729  -22.9304 C.3      37        0    0.0000
    224 C         179.4957   34.8983  -24.2225 C.3      37        0    0.0000
    225 H         177.7787   34.7859  -22.9015 H        37        0    0.0000
    226 H         178.5780   36.3542  -22.9019 H        37        0    0.0000
    227 H         180.4767   35.3884  -24.2532 H        37        0    0.0000
    228 H         179.6824   33.8176  -24.2493 H        37        0    0.0000
    229 C         178.6882   35.3035  -25.5037 C.3      38        0    0.0000
    230 C         179.4238   34.9312  -26.7957 C.3      38        0    0.0000
    231 H         177.7079   34.8121  -25.4739 H        38        0    0.0000
    232 H         178.5000   36.3839  -25.4760 H        38        0    0.0000
    233 H         180.4057   35.4196  -26.8237 H        38        0    0.0000
    234 H         179.6087   33.8502  -26.8252 H        38        0    0.0000
    235 C         178.6187   35.3412  -28.0769 C.3      39        0    0.0000
    236 C         179.3587   34.9776  -29.3689 C.3      39        0    0.0000
    237 H         177.6396   34.8470  -28.0524 H        39        0    0.0000
    238 H         178.4276   36.4209  -28.0439 H        39        0    0.0000
    239 H         180.3185   35.5071  -29.4144 H        39        0    0.0000
    240 H         179.5896   33.9052  -29.3811 H        39        0    0.0000
    241 C         178.5261   35.3299  -30.6496 C.3      40        0    0.0000
    242 C         179.2695   34.9739  -31.9417 C.3      40        0    0.0000
    243 H         177.5688   34.7957  -30.6070 H        40        0    0.0000
    244 H         178.2900   36.4011  -30.6343 H        40        0    0.0000
    245 H         180.2542   35.4574  -31.9546 H        40        0    0.0000
    246 H         179.4489   33.8926  -31.9869 H        40        0    0.0000
    247 C         178.4764   35.4084  -33.2223 C.3      41        0    0.0000
    248 C         179.2162   35.0455  -34.5146 C.3      41        0    0.0000
    249 H         177.4896   34.9294  -33.2066 H        41        0    0.0000
    250 H         178.3020   36.4907  -33.1799 H        41        0    0.0000
    251 H         180.1676   35.5891  -34.5688 H        41        0    0.0000
    252 H         179.4634   33.9767  -34.5191 H        41        0    0.0000
    253 C         178.3727   35.3744  -35.7944 C.3      42        0    0.0000
    254 C         179.1179   35.0241  -37.0871 C.3      42        0    0.0000
    255 H         177.4256   34.8230  -35.7449 H        42        0    0.0000
    256 H         178.1170   36.4412  -35.7849 H        42        0    0.0000
    257 H         179.1730   33.9349  -37.2061 H        42        0    0.0000
    258 H         178.5672   35.4083  -37.9546 H        42        0    0.0000
    259 C         180.5720   35.6092  -37.1118 C.3      43        0    0.0000
    260 C         181.3229   35.2450  -38.3973 C.3      43        0    0.0000
    261 H         180.5162   36.6997  -37.0049 H        43        0    0.0000
    262 H         181.1189   35.2346  -36.2377 H        43        0    0.0000
    263 H         181.6537   36.1563  -38.9108 H        43        0    0.0000
    264 H         182.2276   34.6736  -38.1555 H        43        0    0.0000
    265 C         180.4410   34.4022  -39.3820 C.3      44        0    0.0000
    266 C         181.0401   34.3415  -40.7914 C.3      44        0    0.0000
    267 H         180.3288   33.3888  -38.9770 H        44        0    0.0000
    268 H         179.4357   34.8397  -39.4191 H        44        0    0.0000
    269 H         182.1116   34.5744  -40.7550 H        44        0    0.0000
    270 H         180.9522   33.3248  -41.1940 H        44        0    0.0000
    271 C         180.3397   35.3381  -41.7781 C.3      45        0    0.0000
    272 C         180.1233   34.7253  -43.1662 C.3      45        0    0.0000
    273 H         179.3780   35.6442  -41.3480 H        45        0    0.0000
    274 H         180.9518   36.2449  -41.8585 H        45        0    0.0000
    275 H         179.6451   35.4564  -43.8297 H        45        0    0.0000
    276 H         181.0894   34.4723  -43.6204 H        45        0    0.0000
    277 C         179.2360   33.4341  -43.1139 C.3      46        0    0.0000
    278 C         178.0779   33.4841  -44.1166 C.3      46        0    0.0000
    279 H         179.8696   32.5612  -43.3143 H        46        0    0.0000
    280 H         178.8467   33.3136  -42.0953 H        46        0    0.0000
    281 H         177.4443   34.3569  -43.9162 H        46        0    0.0000
    282 H         178.4672   33.6046  -45.1352 H        46        0    0.0000
    283 H         177.4609   32.5863  -44.0802 H        46        0    0.0000
    284 H         169.2798   53.1887  -40.4349 H         0        0    0.0000
@<TRIPOS>BOND
     1     1     2      1
     2     1     3      1
     3     1     4      1
     4     1   284      H
     5     2     5      1
     6     2     6      1
     7     2     7      1
     8     7     8      1
     9     7     9      1
    10     7    10      1
    11     8    11      1
    12     8    12      1
    13     8    13      1
    14    13    14      1
    15    13    15      1
    16    13    16      1
    17    14    17      1
    18    14    18      1
    19    14    19      1
    20    19    20      1
    21    19    21      1
    22    19    22      1
    23    20    23      1
    24    20    24      1
    25    20    25      1
    26    25    26      1
    27    25    27      1
    28    25    28      1
    29    26    29      1
    30    26    30      1
    31    26    31      1
    32    31    32      1
    33    31    33      1
    34    31    34      1
    35    32    35      1
    36    32    36      1
    37    32    37      1
    38    37    38      1
    39    37    39      1
    40    37    40      1
    41    38    41      1
    42    38    42      1
    43    38    43      1
    44    43    44      1
    45    43    45      1
    46    43    46      1
    47    44    47      1
    48    44    48      1
    49    44    49      1
    50    49    50      1
    51    49    51      1
    52    49    52      1
    53    50    53      1
    54    50    54      1
    55    50    55      1
    56    55    56      1
    57    55    57      1
    58    55    58      1
    59    56    59      1
    60    56    60      1
    61    56    61      1
    62    61    62      1
    63    61    63      1
    64    61    64      1
    65    62    65      1
    66    62    66      1
    67    62    67      1
    68    67    68      1
    69    67    69      1
    70    67    70      1
    71    68    71      1
    72    68    72      1
    73    68    73      1
    74    73    74      1
    75    73    75      1
    76    73    76      1
    77    74    77      1
    78    74    78      1
    79    74    79      1
    80    79    80      1
    81    79    81      1
    82    79    82      1
    83    80    83      1
    84    80    84      1
    85    80    85      1
    86    85    86      1
    87    85    87      1
    88    85    88      1
    89    86    89      1
    90    86    90      1
    91    86    91      1
    92    91    92      1
    93    91    93      1
    94    91    94      1
    95    92    95      1
    96    92    96      1
    97    92    97      1
    98    97    98      1
    99    97    99      1
   100    97   100      1
   101    98   101      1
   102    98   102      1
   103    98   103      1
   104   103   104      1
   105   103   105      1
   106   103   106      1
   107   104   107      1
   108   104   108      1
   109   104   109      1
   110   109   110      1
   111   109   111      1
   112   109   112      1
   113   110   113      1
   114   110   114      1
   115   110   115      1
   116   115   116      1
   117   115   117      1
   118   115   118      1
   119   116   119      1
   120   116   120      1
   121   116   121      1
   122   121   122      1
   123   121   123      1
   124   121   124      1
   125   122   125      1
   126   122   126      1
   127   122   127      1
   128   127   128      1
   129   127   129      1
   130   127   130      1
   131   128   131      1
   132   128   132      1
   133   128   133      1
   134   133   134      1
   135   133   135      1
   136   133   136      1
   137   134   137      1
   138   134   138      1
   139   134   139      1
   140   139   140      1
   141   139   141      1
   142   139   142      1
   143   140   143      1
   144   140   144      1
   145   140   145      1
   146   145   146      1
   147   145   147      1
   148   145   148      1
   149   146   149      1
   150   146   150      1
   151   146   151      1
   152   151   152      1
   153   151   153      1
   154   151   154      1
   155   152   155      1
   156   152   156      1
   157   152   157      1
   158   157   158      1
   159   157   159      1
   160   157   160      1
   161   158   161      1
   162   158   162      1
   163   158   163      1
   164   163   164      1
   165   163   165      1
   166   163   166      1
   167   164   167      1
   168   164   168      1
   169   164   169      1
   170   169   170      1
   171   169   171      1
   172   169   172      1
   173   170   173      1
   174   170   174      1
   175   170   175      1
   176   175   176      1
   177   175   177      1
   178   175   178      1
   179   176   179      1
   180   176   180      1
   181   176   181      1
   182   181   182      1
   183   181   183      1
   184   181   184      1
   185   182   185      1
   186   182   186      1
   187   182   187      1
   188   187   188      1
   189   187   189      1
   190   187   190      1
   191   188   191      1
   192   188   192      1
   193   188   193      1
   194   193   194      1
   195   193   195      1
   196   193   196      1
   197   194   197      1
   198   194   198      1
   199   194   199      1
   200   199   200      1
   201   199   201      1
   202   199   202      1
   203   200   203      1
   204   200   204      1
   205   200   205      1
   206   205   206      1
   207   205   207      1
   208   205   208      1
   209   206   209      1
   210   206   210      1
   211   206   211      1
   212   211   212      1
   213   211   213      1
   214   211   214      1
   215   212   215      1
   216   212   216      1
   217   212   217      1
   218   217   218      1
   219   217   219      1
   220   217   220      1
   221   218   221      1
   222   218   222      1
   223   218   223      1
   224   223   224      1
   225   223   225      1
   226   223   226      1
   227   224   227      1
   228   224   228      1
   229   224   229      1
   230   229   230      1
   231   229   231      1
   232   229   232      1
   233   230   233      1
   234   230   234      1
   235   230   235      1
   236   235   236      1
   237   235   237      1
   238   235   238      1
   239   236   239      1
   240   236   240      1
   241   236   241      1
   242   241   242      1
   243   241   243      1
   244   241   244      1
   245   242   245      1
   246   242   246      1
   247   242   247      1
   248   247   248      1
   249   247   249      1
   250   247   250      1
   251   248   251      1
   252   248   252      1
   253   248   253      1
   254   253   254      1
   255   253   255      1
   256   253   256      1
   257   254   257      1
   258   254   258      1
   259   254   259      1
   260   259   260      1
   261   259   261      1
   262   259   262      1
   263   260   263      1
   264   260   264      1
   265   260   265      1
   266   265   266      1
   267   265   267      1
   268   265   268      1
   269   266   269      1
   270   266   270      1
   271   266   271      1
   272   271   272      1
   273   271   273      1
   274   271   274      1
   275   272   275      1
   276   272   276      1
   277   272   277      1
   278   277   278      1
   279   277   279      1
   280   277   280      1
   281   278   281      1
   282   278   282      1
   283   278   283      H
