###
### Created by PolyChef-cpp17 on Thu Feb 27 19:40:29 2025
###

@<TRIPOS>MOLECULE
NO_INFO
344 343 1 0 0
SMALL
USER_CHARGES


@<TRIPOS>ATOM
      1 C          79.2798  174.4287  120.6551 C.3       0        0    0.0000
      2 C          78.4513  173.2775  120.0742 C.3       0        0    0.0000
      3 H          78.8875  175.3902  120.3015 H         0        0    0.0000
      4 H          80.3162  174.3620  120.3014 H         0        0    0.0000
      5 H          78.4065  172.4476  120.7903 H         0        0    0.0000
      6 H          77.4178  173.6050  119.9066 H         0        0    0.0000
      7 C          79.0387  172.7464  118.7213 C.3       1        0    0.0000
      8 C          79.6371  173.8696  117.8672 C.3       1        0    0.0000
      9 H          79.8042  171.9917  118.9402 H         1        0    0.0000
     10 H          78.2422  172.2354  118.1663 H         1        0    0.0000
     11 H          78.9463  174.7209  117.8278 H         1        0    0.0000
     12 H          80.5641  174.2369  118.3247 H         1        0    0.0000
     13 C          79.9468  173.4020  116.4033 C.3       2        0    0.0000
     14 C          79.8872  174.5585  115.3993 C.3       2        0    0.0000
     15 H          80.9404  172.9374  116.3833 H         2        0    0.0000
     16 H          79.2286  172.6220  116.1217 H         2        0    0.0000
     17 H          78.9658  175.1359  115.5449 H         2        0    0.0000
     18 H          80.7221  175.2491  115.5709 H         2        0    0.0000
     19 C          79.9414  174.0594  113.9142 C.3       3        0    0.0000
     20 C          79.8106  175.2096  112.9097 C.3       3        0    0.0000
     21 H          80.8868  173.5263  113.7547 H         3        0    0.0000
     22 H          79.1377  173.3295  113.7570 H         3        0    0.0000
     23 H          78.8714  175.7510  113.0779 H         3        0    0.0000
     24 H          80.6220  175.9328  113.0583 H         3        0    0.0000
     25 C          79.8460  174.7085  111.4248 C.3       4        0    0.0000
     26 C          79.9493  175.8646  110.4239 C.3       4        0    0.0000
     27 H          80.6970  174.0272  111.3017 H         4        0    0.0000
     28 H          78.9409  174.1205  111.2283 H         4        0    0.0000
     29 H          79.0797  176.5261  110.5222 H         4        0    0.0000
     30 H          80.8350  176.4738  110.6430 H         4        0    0.0000
     31 C          80.0362  175.3613  108.9418 C.3       5        0    0.0000
     32 C          79.0331  176.0725  108.0270 C.3       5        0    0.0000
     33 H          81.0578  175.5188  108.5742 H         5        0    0.0000
     34 H          79.8588  174.2788  108.9250 H         5        0    0.0000
     35 H          78.0661  176.1729  108.5353 H         5        0    0.0000
     36 H          79.3803  177.0896  107.8068 H         5        0    0.0000
     37 C          78.8165  175.3087  106.6753 C.3       6        0    0.0000
     38 C          79.2536  176.1382  105.4629 C.3       6        0    0.0000
     39 H          79.3769  174.3662  106.7080 H         6        0    0.0000
     40 H          77.7562  175.0418  106.5859 H         6        0    0.0000
     41 H          78.4274  176.7766  105.1263 H         6        0    0.0000
     42 H          80.0759  176.8085  105.7425 H         6        0    0.0000
     43 C          79.7187  175.2402  104.2651 C.3       7        0    0.0000
     44 C          79.2227  175.7699  102.9152 C.3       7        0    0.0000
     45 H          80.8144  175.1862  104.2684 H         7        0    0.0000
     46 H          79.3524  174.2187  104.4260 H         7        0    0.0000
     47 H          78.1528  176.0054  102.9736 H         7        0    0.0000
     48 H          79.7380  176.7058  102.6660 H         7        0    0.0000
     49 C          79.4512  174.7424  101.7535 C.3       8        0    0.0000
     50 C          79.3110  175.3885  100.3707 C.3       8        0    0.0000
     51 H          80.4496  174.3011  101.8631 H         8        0    0.0000
     52 H          78.7307  173.9221  101.8602 H         8        0    0.0000
     53 H          78.2916  175.7705  100.2356 H         8        0    0.0000
     54 H          79.9841  176.2509  100.2885 H         8        0    0.0000
     55 C          79.6323  174.3843   99.2106 C.3       9        0    0.0000
     56 C          79.4506  175.0181   97.8269 C.3       9        0    0.0000
     57 H          80.6626  174.0263   99.3279 H         9        0    0.0000
     58 H          78.9806  173.5075   99.3112 H         9        0    0.0000
     59 H          78.4235  175.3869   97.7141 H         9        0    0.0000
     60 H          80.1110  175.8878   97.7219 H         9        0    0.0000
     61 C          79.7555  174.0090   96.6666 C.3      10        0    0.0000
     62 C          79.5659  174.6404   95.2830 C.3      10        0    0.0000
     63 H          80.7845  173.6448   96.7761 H        10        0    0.0000
     64 H          79.0992  173.1366   96.7751 H        10        0    0.0000
     65 H          78.5362  175.0026   95.1727 H        10        0    0.0000
     66 H          80.2204  175.5142   95.1754 H        10        0    0.0000
     67 C          79.8739  173.6323   94.1227 C.3      11        0    0.0000
     68 C          79.6764  174.2612   92.7391 C.3      11        0    0.0000
     69 H          80.9056  173.2747   94.2295 H        11        0    0.0000
     70 H          79.2236  172.7558   94.2338 H        11        0    0.0000
     71 H          78.6444  174.6177   92.6317 H        11        0    0.0000
     72 H          80.3258  175.1385   92.6284 H        11        0    0.0000
     73 C          79.9862  173.2537   91.5787 C.3      12        0    0.0000
     74 C          79.7716  173.8773   90.1952 C.3      12        0    0.0000
     75 H          81.0223  172.9072   91.6785 H        12        0    0.0000
     76 H          79.3459  172.3707   91.6968 H        12        0    0.0000
     77 H          78.7297  174.2034   90.0871 H        12        0    0.0000
     78 H          80.3952  174.7732   90.0856 H        12        0    0.0000
     79 C          80.1117  172.8798   89.0347 C.3      13        0    0.0000
     80 C          79.8957  173.5029   87.6512 C.3      13        0    0.0000
     81 H          81.1539  172.5545   89.1422 H        13        0    0.0000
     82 H          79.4889  171.9834   89.1450 H        13        0    0.0000
     83 H          78.8538  173.8295   87.5442 H        13        0    0.0000
     84 H          80.5195  174.3985   87.5405 H        13        0    0.0000
     85 C          80.2341  172.5048   86.4907 C.3      14        0    0.0000
     86 C          80.0175  173.1278   85.1072 C.3      14        0    0.0000
     87 H          81.2761  172.1786   86.5974 H        14        0    0.0000
     88 H          79.6106  171.6090   86.6017 H        14        0    0.0000
     89 H          78.9947  173.5161   85.0255 H        14        0    0.0000
     90 H          80.6910  173.9828   84.9700 H        14        0    0.0000
     91 C          80.2621  172.1008   83.9483 C.3      15        0    0.0000
     92 C          80.0756  172.7318   82.5641 C.3      15        0    0.0000
     93 H          81.2771  171.6955   84.0434 H        15        0    0.0000
     94 H          79.5728  171.2564   84.0728 H        15        0    0.0000
     95 H          79.0074  172.8633   82.3514 H        15        0    0.0000
     96 H          80.5265  173.7316   82.5426 H        15        0    0.0000
     97 C          80.7145  171.8647   81.4250 C.3      16        0    0.0000
     98 C          80.5334  172.4988   80.0414 C.3      16        0    0.0000
     99 H          81.7818  171.7295   81.6400 H        16        0    0.0000
    100 H          80.2604  170.8663   81.4436 H        16        0    0.0000
    101 H          79.4672  172.5517   79.7885 H        16        0    0.0000
    102 H          80.9071  173.5302   80.0485 H        16        0    0.0000
    103 C          81.2799  171.6986   78.9189 C.3      17        0    0.0000
    104 C          82.0680  172.6162   77.9777 C.3      17        0    0.0000
    105 H          81.9552  170.9741   79.3906 H        17        0    0.0000
    106 H          80.5435  171.1183   78.3492 H        17        0    0.0000
    107 H          81.4017  173.0298   77.2105 H        17        0    0.0000
    108 H          82.4733  173.4691   78.5360 H        17        0    0.0000
    109 C          83.2498  171.8678   77.2702 C.3      18        0    0.0000
    110 C          82.9633  171.5989   75.7888 C.3      18        0    0.0000
    111 H          84.1616  172.4690   77.3739 H        18        0    0.0000
    112 H          83.4345  170.9224   77.7953 H        18        0    0.0000
    113 H          81.8837  171.6470   75.5997 H        18        0    0.0000
    114 H          83.4266  172.3764   75.1689 H        18        0    0.0000
    115 C          83.4955  170.1992   75.3252 C.3      19        0    0.0000
    116 C          84.7537  170.3144   74.4576 C.3      19        0    0.0000
    117 H          83.7051  169.5890   76.2126 H        19        0    0.0000
    118 H          82.7013  169.6851   74.7698 H        19        0    0.0000
    119 H          84.4784  170.3274   73.3957 H        19        0    0.0000
    120 H          85.2659  171.2628   74.6618 H        19        0    0.0000
    121 C          85.7563  169.1350   74.7053 C.3      20        0    0.0000
    122 C          86.0227  168.3223   73.4335 C.3      20        0    0.0000
    123 H          86.6967  169.5459   75.0931 H        20        0    0.0000
    124 H          85.3498  168.4842   75.4894 H        20        0    0.0000
    125 H          85.1122  168.2685   72.8239 H        20        0    0.0000
    126 H          86.7833  168.8216   72.8205 H        20        0    0.0000
    127 C          86.5057  166.8649   73.7501 C.3      21        0    0.0000
    128 C          86.3436  165.9257   72.5498 C.3      21        0    0.0000
    129 H          87.5573  166.9005   74.0605 H        21        0    0.0000
    130 H          85.9371  166.4822   74.6067 H        21        0    0.0000
    131 H          85.3217  165.9914   72.1561 H        21        0    0.0000
    132 H          87.0143  166.2334   71.7381 H        21        0    0.0000
    133 C          86.6480  164.4327   72.9184 C.3      22        0    0.0000
    134 C          86.1513  163.4568   71.8460 C.3      22        0    0.0000
    135 H          87.7296  164.3170   73.0603 H        22        0    0.0000
    136 H          86.1774  164.2035   73.8825 H        22        0    0.0000
    137 H          85.0930  163.6454   71.6269 H        22        0    0.0000
    138 H          86.7001  163.6159   70.9095 H        22        0    0.0000
    139 C          86.3182  161.9602   72.2815 C.3      23        0    0.0000
    140 C          85.8427  160.9840   71.1998 C.3      23        0    0.0000
    141 H          87.3738  161.7760   72.5167 H        23        0    0.0000
    142 H          85.7557  161.7970   73.2091 H        23        0    0.0000
    143 H          86.1117  159.9568   71.4756 H        23        0    0.0000
    144 H          84.7489  161.0130   71.1215 H        23        0    0.0000
    145 C          86.4587  161.3077   69.7951 C.3      24        0    0.0000
    146 C          85.4968  160.9763   68.6488 C.3      24        0    0.0000
    147 H          86.7290  162.3705   69.7640 H        24        0    0.0000
    148 H          87.3913  160.7419   69.6790 H        24        0    0.0000
    149 H          86.0433  160.5015   67.8245 H        24        0    0.0000
    150 H          84.7445  160.2526   68.9863 H        24        0    0.0000
    151 C          84.7635  162.2494   68.1017 C.3      25        0    0.0000
    152 C          84.6466  162.2406   66.5736 C.3      25        0    0.0000
    153 H          83.7661  162.3050   68.5551 H        25        0    0.0000
    154 H          85.3099  163.1415   68.4321 H        25        0    0.0000
    155 H          85.4541  161.6392   66.1380 H        25        0    0.0000
    156 H          83.7037  161.7682   66.2712 H        25        0    0.0000
    157 C          84.7065  163.6839   65.9648 C.3      26        0    0.0000
    158 C          83.3275  164.1854   65.5221 C.3      26        0    0.0000
    159 H          85.1326  164.3653   66.7117 H        26        0    0.0000
    160 H          85.3968  163.6797   65.1122 H        26        0    0.0000
    161 H          83.4310  165.1184   64.9544 H        26        0    0.0000
    162 H          82.8608  163.4565   64.8480 H        26        0    0.0000
    163 C          82.3687  164.4366   66.7366 C.3      27        0    0.0000
    164 C          80.8967  164.4894   66.3133 C.3      27        0    0.0000
    165 H          82.5191  163.6406   67.4764 H        27        0    0.0000
    166 H          82.6540  165.3773   67.2237 H        27        0    0.0000
    167 H          80.6056  165.5239   66.0926 H        27        0    0.0000
    168 H          80.7503  163.9170   65.3889 H        27        0    0.0000
    169 C          79.9402  163.9199   67.4171 C.3      28        0    0.0000
    170 C          79.5159  164.9916   68.4273 C.3      28        0    0.0000
    171 H          79.0557  163.4899   66.9310 H        28        0    0.0000
    172 H          80.4477  163.0958   67.9338 H        28        0    0.0000
    173 H          79.6545  165.9908   67.9961 H        28        0    0.0000
    174 H          78.4473  164.8921   68.6546 H        28        0    0.0000
    175 C          80.3277  164.9015   69.7653 C.3      29        0    0.0000
    176 C          79.4444  165.1287   70.9970 C.3      29        0    0.0000
    177 H          80.8067  163.9162   69.8225 H        29        0    0.0000
    178 H          81.1354  165.6434   69.7395 H        29        0    0.0000
    179 H          79.3282  166.2035   71.1835 H        29        0    0.0000
    180 H          78.4384  164.7296   70.8173 H        29        0    0.0000
    181 C          80.0335  164.4535   72.2833 C.3      30        0    0.0000
    182 C          80.6572  165.4744   73.2414 C.3      30        0    0.0000
    183 H          79.2330  163.9013   72.7910 H        30        0    0.0000
    184 H          80.7847  163.7131   71.9816 H        30        0    0.0000
    185 H          80.8949  166.3998   72.7023 H        30        0    0.0000
    186 H          79.9383  165.7424   74.0256 H        30        0    0.0000
    187 C          81.9641  164.9335   73.9174 C.3      31        0    0.0000
    188 C          81.7480  164.5686   75.3902 C.3      31        0    0.0000
    189 H          82.3134  164.0557   73.3597 H        31        0    0.0000
    190 H          82.7488  165.6952   73.8298 H        31        0    0.0000
    191 H          82.0542  165.4030   76.0333 H        31        0    0.0000
    192 H          80.6816  164.3973   75.5827 H        31        0    0.0000
    193 C          82.5492  163.2878   75.8087 C.3      32        0    0.0000
    194 C          83.8223  163.6288   76.5908 C.3      32        0    0.0000
    195 H          81.8974  162.6447   76.4129 H        32        0    0.0000
    196 H          82.8035  162.7191   74.9057 H        32        0    0.0000
    197 H          84.1143  164.6688   76.3992 H        32        0    0.0000
    198 H          83.6347  163.5478   77.6687 H        32        0    0.0000
    199 C          85.0202  162.6902   76.2145 C.3      33        0    0.0000
    200 C          85.7027  162.0953   77.4511 C.3      33        0    0.0000
    201 H          84.6495  161.8866   75.5662 H        33        0    0.0000
    202 H          85.7457  163.2626   75.6232 H        33        0    0.0000
    203 H          86.3055  162.8619   77.9535 H        33        0    0.0000
    204 H          84.9476  161.7641   78.1748 H        33        0    0.0000
    205 C          86.6265  160.8804   77.0931 C.3      34        0    0.0000
    206 C          87.4983  160.4452   78.2762 C.3      34        0    0.0000
    207 H          85.9985  160.0444   76.7611 H        34        0    0.0000
    208 H          87.2596  161.1567   76.2409 H        34        0    0.0000
    209 H          88.2080  161.2414   78.5333 H        34        0    0.0000
    210 H          86.8740  160.2811   79.1632 H        34        0    0.0000
    211 C          88.2998  159.1327   77.9724 C.3      35        0    0.0000
    212 C          88.8116  158.4560   79.2488 C.3      35        0    0.0000
    213 H          87.6525  158.4441   77.4152 H        35        0    0.0000
    214 H          89.1416  159.3771   77.3127 H        35        0    0.0000
    215 H          89.6076  159.0602   79.7015 H        35        0    0.0000
    216 H          88.0051  158.3914   79.9896 H        35        0    0.0000
    217 C          89.3643  157.0146   78.9764 C.3      36        0    0.0000
    218 C          89.8061  156.3091   80.2634 C.3      36        0    0.0000
    219 H          88.5864  156.4269   78.4734 H        36        0    0.0000
    220 H          90.2071  157.0851   78.2777 H        36        0    0.0000
    221 H          90.0790  155.2687   80.0473 H        36        0    0.0000
    222 H          90.7038  156.7927   80.6682 H        36        0    0.0000
    223 C          88.6872  156.3205   81.3613 C.3      37        0    0.0000
    224 C          89.2015  155.8314   82.7197 C.3      37        0    0.0000
    225 H          88.2925  157.3399   81.4534 H        37        0    0.0000
    226 H          87.8552  155.6897   81.0247 H        37        0    0.0000
    227 H          88.4105  155.2829   83.2461 H        37        0    0.0000
    228 H          90.0311  155.1279   82.5768 H        37        0    0.0000
    229 C          89.6901  157.0107   83.6297 C.3      38        0    0.0000
    230 C          90.0217  156.5475   85.0526 C.3      38        0    0.0000
    231 H          90.5728  157.4708   83.1686 H        38        0    0.0000
    232 H          88.9107  157.7823   83.6573 H        38        0    0.0000
    233 H          90.6899  155.6782   85.0191 H        38        0    0.0000
    234 H          90.5601  157.3382   85.5897 H        38        0    0.0000
    235 C          88.7379  156.1669   85.8678 C.3      39        0    0.0000
    236 C          89.0545  155.8427   87.3319 C.3      39        0    0.0000
    237 H          88.0244  156.9984   85.8124 H        39        0    0.0000
    238 H          88.2564  155.3060   85.3875 H        39        0    0.0000
    239 H          88.1255  155.6584   87.8857 H        39        0    0.0000
    240 H          89.6462  154.9210   87.3937 H        39        0    0.0000
    241 C          89.8435  156.9980   88.0390 C.3      40        0    0.0000
    242 C          90.1847  156.6621   89.4950 C.3      40        0    0.0000
    243 H          90.7624  157.1964   87.4735 H        40        0    0.0000
    244 H          89.2427  157.9149   87.9954 H        40        0    0.0000
    245 H          90.9872  155.9149   89.5305 H        40        0    0.0000
    246 H          90.5625  157.5549   90.0085 H        40        0    0.0000
    247 C          88.9466  156.1117   90.2835 C.3      41        0    0.0000
    248 C          89.2795  155.8067   91.7482 C.3      41        0    0.0000
    249 H          88.1357  156.8484   90.2276 H        41        0    0.0000
    250 H          88.5836  155.2051   89.7836 H        41        0    0.0000
    251 H          88.3631  155.5615   92.2990 H        41        0    0.0000
    252 H          89.9300  154.9255   91.8105 H        41        0    0.0000
    253 C          89.9896  157.0101   92.4590 C.3      42        0    0.0000
    254 C          90.2570  156.7328   93.9424 C.3      42        0    0.0000
    255 H          90.9327  157.2210   91.9397 H        42        0    0.0000
    256 H          89.3634  157.9044   92.3504 H        42        0    0.0000
    257 H          91.0296  155.9610   94.0475 H        42        0    0.0000
    258 H          90.6453  157.6356   94.4298 H        42        0    0.0000
    259 C          88.9678  156.2637   94.7009 C.3      43        0    0.0000
    260 C          89.2532  155.9021   96.1627 C.3      43        0    0.0000
    261 H          88.2176  157.0626   94.6507 H        43        0    0.0000
    262 H          88.5432  155.3993   94.1756 H        43        0    0.0000
    263 H          88.3121  155.8205   96.7206 H        43        0    0.0000
    264 H          89.7391  154.9202   96.2193 H        43        0    0.0000
    265 C          90.1690  156.9606   96.8688 C.3      44        0    0.0000
    266 C          90.3859  156.6435   98.3525 C.3      44        0    0.0000
    267 H          91.1334  156.9978   96.3471 H        44        0    0.0000
    268 H          89.7128  157.9522   96.7588 H        44        0    0.0000
    269 H          91.0023  155.7422   98.4583 H        44        0    0.0000
    270 H          90.9368  157.4603   98.8350 H        44        0    0.0000
    271 C          89.0350  156.4243   99.1169 C.3      45        0    0.0000
    272 C          89.2537  156.0299  100.5817 C.3      45        0    0.0000
    273 H          88.4429  157.3461   99.0599 H        45        0    0.0000
    274 H          88.4584  155.6471   98.6001 H        45        0    0.0000
    275 H          88.3132  156.1180  101.1394 H        45        0    0.0000
    276 H          89.5611  154.9788  100.6464 H        45        0    0.0000
    277 C          90.3405  156.9180  101.2801 C.3      46        0    0.0000
    278 C          90.5104  156.5693  102.7628 C.3      46        0    0.0000
    279 H          91.2937  156.7909  100.7521 H        46        0    0.0000
    280 H          90.0584  157.9727  101.1716 H        46        0    0.0000
    281 H          90.9740  155.5804  102.8659 H        46        0    0.0000
    282 H          91.1879  157.2865  103.2427 H        46        0    0.0000
    283 C          89.1453  156.5701  103.5336 C.3      47        0    0.0000
    284 C          89.3046  156.1458  104.9977 C.3      47        0    0.0000
    285 H          88.7088  157.5751  103.4786 H        47        0    0.0000
    286 H          88.4489  155.8957  103.0201 H        47        0    0.0000
    287 H          88.3926  156.3828  105.5594 H        47        0    0.0000
    288 H          89.4405  155.0591  105.0617 H        47        0    0.0000
    289 C          90.5222  156.8490  105.6909 C.3      48        0    0.0000
    290 C          90.6345  156.4858  107.1756 C.3      48        0    0.0000
    291 H          91.4415  156.5653  105.1637 H        48        0    0.0000
    292 H          90.4156  157.9348  105.5763 H        48        0    0.0000
    293 H          90.9231  155.4330  107.2846 H        48        0    0.0000
    294 H          91.4256  157.0800  107.6495 H        48        0    0.0000
    295 C          89.2917  156.7241  107.9488 C.3      49        0    0.0000
    296 C          89.3745  156.2702  109.4103 C.3      49        0    0.0000
    297 H          89.0401  157.7908  107.8998 H        49        0    0.0000
    298 H          88.4865  156.1865  107.4330 H        49        0    0.0000
    299 H          88.5310  156.6798  109.9798 H        49        0    0.0000
    300 H          89.2942  155.1777  109.4701 H        49        0    0.0000
    301 C          90.7115  156.7168  110.0963 C.3      50        0    0.0000
    302 C          90.7556  156.3421  111.5817 C.3      50        0    0.0000
    303 H          91.5528  156.2533  109.5662 H        50        0    0.0000
    304 H          90.8242  157.8017  109.9785 H        50        0    0.0000
    305 H          90.8211  155.2527  111.6931 H        50        0    0.0000
    306 H          91.6555  156.7612  112.0489 H        50        0    0.0000
    307 C          89.4961  156.8549  112.3615 C.3      51        0    0.0000
    308 C          89.4845  156.3843  113.8201 C.3      51        0    0.0000
    309 H          89.4763  157.9509  112.3197 H        51        0    0.0000
    310 H          88.5937  156.5036  111.8458 H        51        0    0.0000
    311 H          88.7624  156.9728  114.3995 H        51        0    0.0000
    312 H          89.1559  155.3391  113.8756 H        51        0    0.0000
    313 C          90.8940  156.5073  114.4952 C.3      52        0    0.0000
    314 C          90.8590  156.1427  115.9835 C.3      52        0    0.0000
    315 H          91.5984  155.8548  113.9646 H        52        0    0.0000
    316 H          91.2587  157.5341  114.3679 H        52        0    0.0000
    317 H          90.6567  155.0712  116.1036 H        52        0    0.0000
    318 H          91.8384  156.3315  116.4402 H        52        0    0.0000
    319 C          89.7708  156.9535  116.7683 C.3      53        0    0.0000
    320 C          89.5964  156.4511  118.2057 C.3      53        0    0.0000
    321 H          90.0538  158.0135  116.7720 H        53        0    0.0000
    322 H          88.8190  156.8835  116.2272 H        53        0    0.0000
    323 H          89.5357  157.3011  118.8966 H        53        0    0.0000
    324 H          88.6520  155.9007  118.2998 H        53        0    0.0000
    325 C          90.7725  155.5173  118.6555 C.3      54        0    0.0000
    326 C          90.6621  155.1133  120.1298 C.3      54        0    0.0000
    327 H          90.7770  154.6232  118.0198 H        54        0    0.0000
    328 H          91.7231  156.0352  118.4775 H        54        0    0.0000
    329 H          90.7692  154.0262  120.2310 H        54        0    0.0000
    330 H          91.4790  155.5653  120.7059 H        54        0    0.0000
    331 C          89.2959  155.5477  120.7642 C.3      55        0    0.0000
    332 C          89.2586  155.3150  122.2786 C.3      55        0    0.0000
    333 H          89.1244  156.6083  120.5423 H        55        0    0.0000
    334 H          88.4867  154.9892  120.2777 H        55        0    0.0000
    335 H          88.3115  155.6827  122.6925 H        55        0    0.0000
    336 H          89.3010  154.2404  122.4952 H        55        0    0.0000
    337 C          90.4434  156.0267  123.0184 C.3      56        0    0.0000
    338 C          89.9579  156.9319  124.1559 C.3      56        0    0.0000
    339 H          91.1254  155.2623  123.4109 H        56        0    0.0000
    340 H          91.0146  156.6135  122.2884 H        56        0    0.0000
    341 H          89.2759  157.6963  123.7634 H        56        0    0.0000
    342 H          89.3867  156.3450  124.8859 H        56        0    0.0000
    343 H          90.7817  157.4267  124.6703 H        56        0    0.0000
    344 H          79.2798  174.4287  121.7450 H         0        0    0.0000
@<TRIPOS>BOND
     1     1     2      1
     2     1     3      1
     3     1     4      1
     4     1   344      H
     5     2     5      1
     6     2     6      1
     7     2     7      1
     8     7     8      1
     9     7     9      1
    10     7    10      1
    11     8    11      1
    12     8    12      1
    13     8    13      1
    14    13    14      1
    15    13    15      1
    16    13    16      1
    17    14    17      1
    18    14    18      1
    19    14    19      1
    20    19    20      1
    21    19    21      1
    22    19    22      1
    23    20    23      1
    24    20    24      1
    25    20    25      1
    26    25    26      1
    27    25    27      1
    28    25    28      1
    29    26    29      1
    30    26    30      1
    31    26    31      1
    32    31    32      1
    33    31    33      1
    34    31    34      1
    35    32    35      1
    36    32    36      1
    37    32    37      1
    38    37    38      1
    39    37    39      1
    40    37    40      1
    41    38    41      1
    42    38    42      1
    43    38    43      1
    44    43    44      1
    45    43    45      1
    46    43    46      1
    47    44    47      1
    48    44    48      1
    49    44    49      1
    50    49    50      1
    51    49    51      1
    52    49    52      1
    53    50    53      1
    54    50    54      1
    55    50    55      1
    56    55    56      1
    57    55    57      1
    58    55    58      1
    59    56    59      1
    60    56    60      1
    61    56    61      1
    62    61    62      1
    63    61    63      1
    64    61    64      1
    65    62    65      1
    66    62    66      1
    67    62    67      1
    68    67    68      1
    69    67    69      1
    70    67    70      1
    71    68    71      1
    72    68    72      1
    73    68    73      1
    74    73    74      1
    75    73    75      1
    76    73    76      1
    77    74    77      1
    78    74    78      1
    79    74    79      1
    80    79    80      1
    81    79    81      1
    82    79    82      1
    83    80    83      1
    84    80    84      1
    85    80    85      1
    86    85    86      1
    87    85    87      1
    88    85    88      1
    89    86    89      1
    90    86    90      1
    91    86    91      1
    92    91    92      1
    93    91    93      1
    94    91    94      1
    95    92    95      1
    96    92    96      1
    97    92    97      1
    98    97    98      1
    99    97    99      1
   100    97   100      1
   101    98   101      1
   102    98   102      1
   103    98   103      1
   104   103   104      1
   105   103   105      1
   106   103   106      1
   107   104   107      1
   108   104   108      1
   109   104   109      1
   110   109   110      1
   111   109   111      1
   112   109   112      1
   113   110   113      1
   114   110   114      1
   115   110   115      1
   116   115   116      1
   117   115   117      1
   118   115   118      1
   119   116   119      1
   120   116   120      1
   121   116   121      1
   122   121   122      1
   123   121   123      1
   124   121   124      1
   125   122   125      1
   126   122   126      1
   127   122   127      1
   128   127   128      1
   129   127   129      1
   130   127   130      1
   131   128   131      1
   132   128   132      1
   133   128   133      1
   134   133   134      1
   135   133   135      1
   136   133   136      1
   137   134   137      1
   138   134   138      1
   139   134   139      1
   140   139   140      1
   141   139   141      1
   142   139   142      1
   143   140   143      1
   144   140   144      1
   145   140   145      1
   146   145   146      1
   147   145   147      1
   148   145   148      1
   149   146   149      1
   150   146   150      1
   151   146   151      1
   152   151   152      1
   153   151   153      1
   154   151   154      1
   155   152   155      1
   156   152   156      1
   157   152   157      1
   158   157   158      1
   159   157   159      1
   160   157   160      1
   161   158   161      1
   162   158   162      1
   163   158   163      1
   164   163   164      1
   165   163   165      1
   166   163   166      1
   167   164   167      1
   168   164   168      1
   169   164   169      1
   170   169   170      1
   171   169   171      1
   172   169   172      1
   173   170   173      1
   174   170   174      1
   175   170   175      1
   176   175   176      1
   177   175   177      1
   178   175   178      1
   179   176   179      1
   180   176   180      1
   181   176   181      1
   182   181   182      1
   183   181   183      1
   184   181   184      1
   185   182   185      1
   186   182   186      1
   187   182   187      1
   188   187   188      1
   189   187   189      1
   190   187   190      1
   191   188   191      1
   192   188   192      1
   193   188   193      1
   194   193   194      1
   195   193   195      1
   196   193   196      1
   197   194   197      1
   198   194   198      1
   199   194   199      1
   200   199   200      1
   201   199   201      1
   202   199   202      1
   203   200   203      1
   204   200   204      1
   205   200   205      1
   206   205   206      1
   207   205   207      1
   208   205   208      1
   209   206   209      1
   210   206   210      1
   211   206   211      1
   212   211   212      1
   213   211   213      1
   214   211   214      1
   215   212   215      1
   216   212   216      1
   217   212   217      1
   218   217   218      1
   219   217   219      1
   220   217   220      1
   221   218   221      1
   222   218   222      1
   223   218   223      1
   224   223   224      1
   225   223   225      1
   226   223   226      1
   227   224   227      1
   228   224   228      1
   229   224   229      1
   230   229   230      1
   231   229   231      1
   232   229   232      1
   233   230   233      1
   234   230   234      1
   235   230   235      1
   236   235   236      1
   237   235   237      1
   238   235   238      1
   239   236   239      1
   240   236   240      1
   241   236   241      1
   242   241   242      1
   243   241   243      1
   244   241   244      1
   245   242   245      1
   246   242   246      1
   247   242   247      1
   248   247   248      1
   249   247   249      1
   250   247   250      1
   251   248   251      1
   252   248   252      1
   253   248   253      1
   254   253   254      1
   255   253   255      1
   256   253   256      1
   257   254   257      1
   258   254   258      1
   259   254   259      1
   260   259   260      1
   261   259   261      1
   262   259   262      1
   263   260   263      1
   264   260   264      1
   265   260   265      1
   266   265   266      1
   267   265   267      1
   268   265   268      1
   269   266   269      1
   270   266   270      1
   271   266   271      1
   272   271   272      1
   273   271   273      1
   274   271   274      1
   275   272   275      1
   276   272   276      1
   277   272   277      1
   278   277   278      1
   279   277   279      1
   280   277   280      1
   281   278   281      1
   282   278   282      1
   283   278   283      1
   284   283   284      1
   285   283   285      1
   286   283   286      1
   287   284   287      1
   288   284   288      1
   289   284   289      1
   290   289   290      1
   291   289   291      1
   292   289   292      1
   293   290   293      1
   294   290   294      1
   295   290   295      1
   296   295   296      1
   297   295   297      1
   298   295   298      1
   299   296   299      1
   300   296   300      1
   301   296   301      1
   302   301   302      1
   303   301   303      1
   304   301   304      1
   305   302   305      1
   306   302   306      1
   307   302   307      1
   308   307   308      1
   309   307   309      1
   310   307   310      1
   311   308   311      1
   312   308   312      1
   313   308   313      1
   314   313   314      1
   315   313   315      1
   316   313   316      1
   317   314   317      1
   318   314   318      1
   319   314   319      1
   320   319   320      1
   321   319   321      1
   322   319   322      1
   323   320   323      1
   324   320   324      1
   325   320   325      1
   326   325   326      1
   327   325   327      1
   328   325   328      1
   329   326   329      1
   330   326   330      1
   331   326   331      1
   332   331   332      1
   333   331   333      1
   334   331   334      1
   335   332   335      1
   336   332   336      1
   337   332   337      1
   338   337   338      1
   339   337   339      1
   340   337   340      1
   341   338   341      1
   342   338   342      1
   343   338   343      H
