###
### Created by PolyChef-cpp17 on Thu Feb 27 19:40:30 2025
###

@<TRIPOS>MOLECULE
NO_INFO
146 145 1 0 0
SMALL
USER_CHARGES


@<TRIPOS>ATOM
      1 C         139.2798  174.4287  -39.3449 C.3       0        0    0.0000
      2 C         137.8706  174.2682  -38.7641 C.3       0        0    0.0000
      3 H         139.9271  173.6166  -38.9914 H         0        0    0.0000
      4 H         139.7280  175.3655  -38.9913 H         0        0    0.0000
      5 H         137.3724  175.2441  -38.7105 H         0        0    0.0000
      6 H         137.2609  173.6391  -39.4245 H         0        0    0.0000
      7 C         137.8873  173.6302  -37.3323 C.3       1        0    0.0000
      8 C         139.1649  173.9733  -36.5583 C.3       1        0    0.0000
      9 H         137.0069  173.9800  -36.7790 H         1        0    0.0000
     10 H         137.7868  172.5420  -37.4288 H         1        0    0.0000
     11 H         140.0453  173.7970  -37.1887 H         1        0    0.0000
     12 H         139.1722  175.0390  -36.2979 H         1        0    0.0000
     13 C         139.3076  173.1310  -35.2440 C.3       2        0    0.0000
     14 C         140.2051  173.8177  -34.2086 C.3       2        0    0.0000
     15 H         138.3090  172.9611  -34.8226 H         2        0    0.0000
     16 H         139.7141  172.1443  -35.4987 H         2        0    0.0000
     17 H         141.2597  173.6954  -34.4847 H         2        0    0.0000
     18 H         140.0061  174.8965  -34.1948 H         2        0    0.0000
     19 C         139.9913  173.2460  -32.7646 C.3       3        0    0.0000
     20 C         140.6208  174.1368  -31.6881 C.3       3        0    0.0000
     21 H         138.9147  173.1393  -32.5824 H         3        0    0.0000
     22 H         140.4204  172.2375  -32.7165 H         3        0    0.0000
     23 H         141.7102  174.1666  -31.8142 H         3        0    0.0000
     24 H         140.2628  175.1682  -31.7966 H         3        0    0.0000
     25 C         140.2935  173.6383  -30.2383 C.3       4        0    0.0000
     26 C         140.9064  174.5406  -29.1616 C.3       4        0    0.0000
     27 H         139.2041  173.5946  -30.1169 H         4        0    0.0000
     28 H         140.6646  172.6121  -30.1251 H         4        0    0.0000
     29 H         141.9963  174.5811  -29.2805 H         4        0    0.0000
     30 H         140.5385  175.5676  -29.2773 H         4        0    0.0000
     31 C         140.5745  174.0452  -27.7118 C.3       5        0    0.0000
     32 C         141.1712  174.9583  -26.6351 C.3       5        0    0.0000
     33 H         139.4847  173.9911  -27.5975 H         5        0    0.0000
     34 H         140.9550  173.0233  -27.5915 H         5        0    0.0000
     35 H         142.2612  175.0106  -26.7482 H         5        0    0.0000
     36 H         140.7924  175.9806  -26.7567 H         5        0    0.0000
     37 C         140.8368  174.4646  -25.1854 C.3       6        0    0.0000
     38 C         141.4780  175.3471  -24.1088 C.3       6        0    0.0000
     39 H         139.7471  174.4495  -25.0595 H         6        0    0.0000
     40 H         141.1808  173.4285  -25.0765 H         6        0    0.0000
     41 H         142.5672  175.3672  -24.2385 H         6        0    0.0000
     42 H         141.1291  176.3819  -24.2138 H         6        0    0.0000
     43 C         141.1510  174.8482  -22.6591 C.3       7        0    0.0000
     44 C         141.0686  176.0012  -21.6528 C.3       7        0    0.0000
     45 H         140.2017  174.2986  -22.6801 H         7        0    0.0000
     46 H         141.9225  174.1326  -22.3490 H         7        0    0.0000
     47 H         142.0529  176.4718  -21.5385 H         7        0    0.0000
     48 H         140.3894  176.7780  -22.0255 H         7        0    0.0000
     49 C         140.5691  175.5263  -20.2448 C.3       8        0    0.0000
     50 C         141.5227  175.9425  -19.1194 C.3       8        0    0.0000
     51 H         139.5703  175.9431  -20.0649 H         8        0    0.0000
     52 H         140.4572  174.4351  -20.2588 H         8        0    0.0000
     53 H         142.5618  175.8853  -19.4665 H         8        0    0.0000
     54 H         141.3410  176.9876  -18.8397 H         8        0    0.0000
     55 C         141.3656  175.0436  -17.8447 C.3       9        0    0.0000
     56 C         141.1065  175.8696  -16.5799 C.3       9        0    0.0000
     57 H         140.5414  174.3383  -18.0088 H         9        0    0.0000
     58 H         142.2750  174.4424  -17.7217 H         9        0    0.0000
     59 H         142.0325  176.3597  -16.2545 H         9        0    0.0000
     60 H         140.3855  176.6684  -16.7934 H         9        0    0.0000
     61 C         140.5568  174.9945  -15.4011 C.3      10        0    0.0000
     62 C         140.9976  175.5221  -14.0314 C.3      10        0    0.0000
     63 H         139.4616  174.9697  -15.4600 H        10        0    0.0000
     64 H         140.9030  173.9622  -15.5358 H        10        0    0.0000
     65 H         142.0827  175.6838  -14.0219 H        10        0    0.0000
     66 H         140.5323  176.4962  -13.8360 H        10        0    0.0000
     67 C         140.6228  174.5406  -12.8679 C.3      11        0    0.0000
     68 C         140.8678  175.1572  -11.4863 C.3      11        0    0.0000
     69 H         139.5684  174.2561  -12.9712 H        11        0    0.0000
     70 H         141.2098  173.6204  -12.9786 H        11        0    0.0000
     71 H         141.9305  175.4021  -11.3667 H        11        0    0.0000
     72 H         140.3147  176.0998  -11.3915 H        11        0    0.0000
     73 C         140.4362  174.1989  -10.3231 C.3      12        0    0.0000
     74 C         140.7079  174.8036   -8.9412 C.3      12        0    0.0000
     75 H         139.3685  173.9708  -10.4306 H        12        0    0.0000
     76 H         140.9737  173.2485  -10.4301 H        12        0    0.0000
     77 H         141.7746  175.0374   -8.8360 H        12        0    0.0000
     78 H         140.1655  175.7510   -8.8320 H        12        0    0.0000
     79 C         140.2843  173.8418   -7.7781 C.3      13        0    0.0000
     80 C         140.5506  174.4489   -6.3962 C.3      13        0    0.0000
     81 H         139.2186  173.6047   -7.8857 H        13        0    0.0000
     82 H         140.8298  172.8960   -7.8849 H        13        0    0.0000
     83 H         141.6165  174.6852   -6.2883 H        13        0    0.0000
     84 H         140.0058  175.3951   -6.2897 H        13        0    0.0000
     85 C         140.1259  173.4876   -5.2331 C.3      14        0    0.0000
     86 C         140.3935  174.0942   -3.8512 C.3      14        0    0.0000
     87 H         139.0598  173.2521   -5.3405 H        14        0    0.0000
     88 H         140.6700  172.5410   -5.3401 H        14        0    0.0000
     89 H         141.4605  174.3245   -3.7418 H        14        0    0.0000
     90 H         139.8538  175.0435   -3.7463 H        14        0    0.0000
     91 C         139.9615  173.1361   -2.6881 C.3      15        0    0.0000
     92 C         140.2439  173.7360   -1.3062 C.3      15        0    0.0000
     93 H         138.8918  172.9151   -2.7908 H        15        0    0.0000
     94 H         140.4923  172.1825   -2.7998 H        15        0    0.0000
     95 H         141.3079  173.9874   -1.2156 H        15        0    0.0000
     96 H         139.6871  174.6731   -1.1820 H        15        0    0.0000
     97 C         139.8546  172.7590   -0.1437 C.3      16        0    0.0000
     98 C         140.8408  172.8279    1.0276 C.3      16        0    0.0000
     99 H         138.8428  173.0055    0.2015 H        16        0    0.0000
    100 H         139.8121  171.7370   -0.5400 H        16        0    0.0000
    101 H         141.8622  172.9653    0.6517 H        16        0    0.0000
    102 H         140.6170  173.6981    1.6570 H        16        0    0.0000
    103 C         140.7988  171.5372    1.9163 C.3      17        0    0.0000
    104 C         141.8635  171.5560    3.0185 C.3      17        0    0.0000
    105 H         139.7996  171.4458    2.3600 H        17        0    0.0000
    106 H         140.9391  170.6600    1.2727 H        17        0    0.0000
    107 H         142.8604  171.6764    2.5766 H        17        0    0.0000
    108 H         141.7058  172.4174    3.6793 H        17        0    0.0000
    109 C         141.8482  170.2476    3.8818 C.3      18        0    0.0000
    110 C         142.9249  170.2587    4.9726 C.3      18        0    0.0000
    111 H         140.8553  170.1342    4.3344 H        18        0    0.0000
    112 H         141.9928  169.3851    3.2193 H        18        0    0.0000
    113 H         143.9175  170.3745    4.5201 H        18        0    0.0000
    114 H         142.7789  171.1198    5.6364 H        18        0    0.0000
    115 C         142.9117  168.9488    5.8337 C.3      19        0    0.0000
    116 C         143.9845  168.9625    6.9282 C.3      19        0    0.0000
    117 H         141.9177  168.8308    6.2827 H        19        0    0.0000
    118 H         143.0620  168.0880    5.1704 H        19        0    0.0000
    119 H         144.9783  169.0826    6.4794 H        19        0    0.0000
    120 H         143.8329  169.8221    7.5928 H        19        0    0.0000
    121 C         143.9733  167.6513    7.7875 C.3      20        0    0.0000
    122 C         144.4603  167.8919    9.2206 C.3      20        0    0.0000
    123 H         142.9542  167.2452    7.7996 H        20        0    0.0000
    124 H         144.6055  166.9013    7.2963 H        20        0    0.0000
    125 H         145.5242  168.1595    9.2165 H        20        0    0.0000
    126 H         143.9237  168.7406    9.6628 H        20        0    0.0000
    127 C         144.2589  166.6349   10.1354 C.3      21        0    0.0000
    128 C         145.5596  166.2004   10.8199 C.3      21        0    0.0000
    129 H         143.4958  166.8648   10.8893 H        21        0    0.0000
    130 H         143.8621  165.8138    9.5257 H        21        0    0.0000
    131 H         146.4233  166.6048   10.2778 H        21        0    0.0000
    132 H         145.6051  166.6109   11.8363 H        21        0    0.0000
    133 C         145.6973  164.6408   10.8983 C.3      22        0    0.0000
    134 C         147.0354  164.1469   10.3375 C.3      22        0    0.0000
    135 H         145.5896  164.3284   11.9445 H        22        0    0.0000
    136 H         144.8665  164.1842   10.3461 H        22        0    0.0000
    137 H         147.7808  164.9507   10.3802 H        22        0    0.0000
    138 H         147.4217  163.3259   10.9541 H        22        0    0.0000
    139 C         146.9117  163.6508    8.8556 C.3      23        0    0.0000
    140 C         147.5650  162.2804    8.6454 C.3      23        0    0.0000
    141 H         145.8494  163.6065    8.5850 H        23        0    0.0000
    142 H         147.3745  164.3936    8.1941 H        23        0    0.0000
    143 H         148.6273  162.3246    8.9159 H        23        0    0.0000
    144 H         147.1022  161.5376    9.3068 H        23        0    0.0000
    145 H         147.4790  161.9354    7.6150 H        23        0    0.0000
    146 H         139.2798  174.4287  -40.4349 H         0        0    0.0000
@<TRIPOS>BOND
     1     1     2      1
     2     1     3      1
     3     1     4      1
     4     1   146      H
     5     2     5      1
     6     2     6      1
     7     2     7      1
     8     7     8      1
     9     7     9      1
    10     7    10      1
    11     8    11      1
    12     8    12      1
    13     8    13      1
    14    13    14      1
    15    13    15      1
    16    13    16      1
    17    14    17      1
    18    14    18      1
    19    14    19      1
    20    19    20      1
    21    19    21      1
    22    19    22      1
    23    20    23      1
    24    20    24      1
    25    20    25      1
    26    25    26      1
    27    25    27      1
    28    25    28      1
    29    26    29      1
    30    26    30      1
    31    26    31      1
    32    31    32      1
    33    31    33      1
    34    31    34      1
    35    32    35      1
    36    32    36      1
    37    32    37      1
    38    37    38      1
    39    37    39      1
    40    37    40      1
    41    38    41      1
    42    38    42      1
    43    38    43      1
    44    43    44      1
    45    43    45      1
    46    43    46      1
    47    44    47      1
    48    44    48      1
    49    44    49      1
    50    49    50      1
    51    49    51      1
    52    49    52      1
    53    50    53      1
    54    50    54      1
    55    50    55      1
    56    55    56      1
    57    55    57      1
    58    55    58      1
    59    56    59      1
    60    56    60      1
    61    56    61      1
    62    61    62      1
    63    61    63      1
    64    61    64      1
    65    62    65      1
    66    62    66      1
    67    62    67      1
    68    67    68      1
    69    67    69      1
    70    67    70      1
    71    68    71      1
    72    68    72      1
    73    68    73      1
    74    73    74      1
    75    73    75      1
    76    73    76      1
    77    74    77      1
    78    74    78      1
    79    74    79      1
    80    79    80      1
    81    79    81      1
    82    79    82      1
    83    80    83      1
    84    80    84      1
    85    80    85      1
    86    85    86      1
    87    85    87      1
    88    85    88      1
    89    86    89      1
    90    86    90      1
    91    86    91      1
    92    91    92      1
    93    91    93      1
    94    91    94      1
    95    92    95      1
    96    92    96      1
    97    92    97      1
    98    97    98      1
    99    97    99      1
   100    97   100      1
   101    98   101      1
   102    98   102      1
   103    98   103      1
   104   103   104      1
   105   103   105      1
   106   103   106      1
   107   104   107      1
   108   104   108      1
   109   104   109      1
   110   109   110      1
   111   109   111      1
   112   109   112      1
   113   110   113      1
   114   110   114      1
   115   110   115      1
   116   115   116      1
   117   115   117      1
   118   115   118      1
   119   116   119      1
   120   116   120      1
   121   116   121      1
   122   121   122      1
   123   121   123      1
   124   121   124      1
   125   122   125      1
   126   122   126      1
   127   122   127      1
   128   127   128      1
   129   127   129      1
   130   127   130      1
   131   128   131      1
   132   128   132      1
   133   128   133      1
   134   133   134      1
   135   133   135      1
   136   133   136      1
   137   134   137      1
   138   134   138      1
   139   134   139      1
   140   139   140      1
   141   139   141      1
   142   139   142      1
   143   140   143      1
   144   140   144      1
   145   140   145      H
