###
### Created by PolyChef-cpp17 on Thu Feb 27 19:40:30 2025
###

@<TRIPOS>MOLECULE
NO_INFO
140 139 1 0 0
SMALL
USER_CHARGES


@<TRIPOS>ATOM
      1 C         159.2798  174.4287  -39.3449 C.3       0        0    0.0000
      2 C         157.8706  174.2682  -38.7641 C.3       0        0    0.0000
      3 H         159.9271  173.6166  -38.9914 H         0        0    0.0000
      4 H         159.7280  175.3655  -38.9913 H         0        0    0.0000
      5 H         157.3724  175.2441  -38.7106 H         0        0    0.0000
      6 H         157.2609  173.6391  -39.4245 H         0        0    0.0000
      7 C         157.8873  173.6302  -37.3323 C.3       1        0    0.0000
      8 C         159.1649  173.9733  -36.5584 C.3       1        0    0.0000
      9 H         157.0069  173.9800  -36.7790 H         1        0    0.0000
     10 H         157.7867  172.5420  -37.4288 H         1        0    0.0000
     11 H         160.0454  173.7954  -37.1882 H         1        0    0.0000
     12 H         159.1730  175.0393  -36.2993 H         1        0    0.0000
     13 C         159.3065  173.1326  -35.2428 C.3       2        0    0.0000
     14 C         160.2064  173.8186  -34.2091 C.3       2        0    0.0000
     15 H         158.3078  172.9658  -34.8205 H         2        0    0.0000
     16 H         159.7104  172.1445  -35.4963 H         2        0    0.0000
     17 H         161.2605  173.6944  -34.4865 H         2        0    0.0000
     18 H         160.0092  174.8977  -34.1959 H         2        0    0.0000
     19 C         159.9935  173.2484  -32.7645 C.3       3        0    0.0000
     20 C         160.6221  174.1413  -31.6890 C.3       3        0    0.0000
     21 H         158.9171  173.1406  -32.5819 H         3        0    0.0000
     22 H         160.4238  172.2404  -32.7152 H         3        0    0.0000
     23 H         161.7112  174.1745  -31.8171 H         3        0    0.0000
     24 H         160.2606  175.1714  -31.7970 H         3        0    0.0000
     25 C         160.2990  173.6417  -30.2387 C.3       4        0    0.0000
     26 C         160.9004  174.5529  -29.1630 C.3       4        0    0.0000
     27 H         159.2099  173.5858  -30.1184 H         4        0    0.0000
     28 H         160.6816  172.6201  -30.1231 H         4        0    0.0000
     29 H         161.9901  174.6034  -29.2791 H         4        0    0.0000
     30 H         160.5231  175.5761  -29.2828 H         4        0    0.0000
     31 C         160.5691  174.0588  -27.7127 C.3       5        0    0.0000
     32 C         161.1819  174.9624  -26.6370 C.3       5        0    0.0000
     33 H         159.4793  174.0177  -27.5934 H         5        0    0.0000
     34 H         160.9376  173.0321  -27.5961 H         5        0    0.0000
     35 H         162.2716  175.0037  -26.7565 H         5        0    0.0000
     36 H         160.8130  175.9890  -26.7534 H         5        0    0.0000
     37 C         160.8510  174.4680  -25.1866 C.3       6        0    0.0000
     38 C         161.4626  175.3723  -24.1110 C.3       6        0    0.0000
     39 H         159.7613  174.4257  -25.0674 H         6        0    0.0000
     40 H         161.2208  173.4417  -25.0700 H         6        0    0.0000
     41 H         162.5524  175.4141  -24.2298 H         6        0    0.0000
     42 H         161.0934  176.3988  -24.2281 H         6        0    0.0000
     43 C         161.1311  174.8784  -22.6606 C.3       7        0    0.0000
     44 C         161.0746  176.0318  -21.6529 C.3       7        0    0.0000
     45 H         160.1713  174.3474  -22.6787 H         7        0    0.0000
     46 H         161.8897  174.1477  -22.3539 H         7        0    0.0000
     47 H         162.0646  176.4942  -21.5546 H         7        0    0.0000
     48 H         160.3960  176.8144  -22.0145 H         7        0    0.0000
     49 C         160.5940  175.5609  -20.2371 C.3       8        0    0.0000
     50 C         161.5598  175.9847  -19.1251 C.3       8        0    0.0000
     51 H         159.5961  175.9749  -20.0466 H         8        0    0.0000
     52 H         160.4858  174.4691  -20.2455 H         8        0    0.0000
     53 H         162.5948  175.9301  -19.4848 H         8        0    0.0000
     54 H         161.3777  177.0302  -18.8469 H         8        0    0.0000
     55 C         161.4218  175.0899  -17.8453 C.3       9        0    0.0000
     56 C         161.1086  175.9138  -16.5915 C.3       9        0    0.0000
     57 H         160.6311  174.3488  -18.0156 H         9        0    0.0000
     58 H         162.3540  174.5291  -17.7038 H         9        0    0.0000
     59 H         162.0139  176.4253  -16.2417 H         9        0    0.0000
     60 H         160.3766  176.6959  -16.8285 H         9        0    0.0000
     61 C         160.5448  175.0305  -15.4256 C.3      10        0    0.0000
     62 C         160.9793  175.5413  -14.0475 C.3      10        0    0.0000
     63 H         159.4499  175.0136  -15.4925 H        10        0    0.0000
     64 H         160.8851  173.9974  -15.5684 H        10        0    0.0000
     65 H         162.0637  175.7067  -14.0324 H        10        0    0.0000
     66 H         160.5099  176.5110  -13.8406 H        10        0    0.0000
     67 C         160.6044  174.5430  -12.8985 C.3      11        0    0.0000
     68 C         160.8530  175.1378  -11.5081 C.3      11        0    0.0000
     69 H         159.5491  174.2622  -13.0044 H        11        0    0.0000
     70 H         161.1892  173.6234  -13.0243 H        11        0    0.0000
     71 H         161.9162  175.3792  -11.3868 H        11        0    0.0000
     72 H         160.3015  176.0798  -11.3978 H        11        0    0.0000
     73 C         160.4220  174.1625  -10.3589 C.3      12        0    0.0000
     74 C         160.6799  174.7533   -8.9684 C.3      12        0    0.0000
     75 H         159.3569  173.9270  -10.4759 H        12        0    0.0000
     76 H         160.9680  173.2179  -10.4735 H        12        0    0.0000
     77 H         161.7445  174.9915   -8.8524 H        12        0    0.0000
     78 H         160.1317  175.6965   -8.8528 H        12        0    0.0000
     79 C         160.2526  173.7764   -7.8192 C.3      13        0    0.0000
     80 C         160.5109  174.3670   -6.4287 C.3      13        0    0.0000
     81 H         159.1879  173.5385   -7.9350 H        13        0    0.0000
     82 H         160.8005  172.8331   -7.9350 H        13        0    0.0000
     83 H         161.5758  174.6040   -6.3126 H        13        0    0.0000
     84 H         159.9637  175.3109   -6.3133 H        13        0    0.0000
     85 C         160.0823  173.3907   -5.2796 C.3      14        0    0.0000
     86 C         160.3421  173.9807   -3.8891 C.3      14        0    0.0000
     87 H         159.0171  173.1547   -5.3951 H        14        0    0.0000
     88 H         160.6286  172.4465   -5.3956 H        14        0    0.0000
     89 H         161.4135  174.1762   -3.7576 H        14        0    0.0000
     90 H         159.8310  174.9463   -3.7887 H        14        0    0.0000
     91 C         159.8571  173.0305   -2.7405 C.3      15        0    0.0000
     92 C         160.0635  173.6454   -1.3518 C.3      15        0    0.0000
     93 H         158.7958  172.8006   -2.8961 H        15        0    0.0000
     94 H         160.3996  172.0798   -2.8153 H        15        0    0.0000
     95 H         161.1306  173.8308   -1.1774 H        15        0    0.0000
     96 H         159.5609  174.6188   -1.2930 H        15        0    0.0000
     97 C         159.5169  172.7245   -0.2070 C.3      16        0    0.0000
     98 C         158.5601  173.4692    0.7305 C.3      16        0    0.0000
     99 H         159.0075  171.8640   -0.6583 H        16        0    0.0000
    100 H         160.3660  172.3254    0.3616 H        16        0    0.0000
    101 H         158.4348  172.9069    1.6642 H        16        0    0.0000
    102 H         158.9838  174.4435    1.0039 H        16        0    0.0000
    103 C         157.1501  173.6949    0.0835 C.3      17        0    0.0000
    104 C         156.1515  174.3132    1.0681 C.3      17        0    0.0000
    105 H         157.2635  174.3433   -0.7941 H        17        0    0.0000
    106 H         156.7709  172.7328   -0.2825 H        17        0    0.0000
    107 H         156.0914  173.7015    1.9768 H        17        0    0.0000
    108 H         156.4965  175.3069    1.3796 H        17        0    0.0000
    109 C         154.7158  174.4467    0.4530 C.3      18        0    0.0000
    110 C         153.7112  175.0411    1.4462 C.3      18        0    0.0000
    111 H         154.7729  175.0740   -0.4452 H        18        0    0.0000
    112 H         154.3785  173.4559    0.1242 H        18        0    0.0000
    113 H         153.2512  175.9422    1.0221 H        18        0    0.0000
    114 H         152.8974  174.3287    1.6299 H        18        0    0.0000
    115 C         154.3779  175.4109    2.8160 C.3      19        0    0.0000
    116 C         153.3423  175.7605    3.8904 C.3      19        0    0.0000
    117 H         154.9946  174.5667    3.1484 H        19        0    0.0000
    118 H         155.0591  176.2567    2.6607 H        19        0    0.0000
    119 H         152.7605  176.6375    3.5808 H        19        0    0.0000
    120 H         152.6294  174.9351    4.0084 H        19        0    0.0000
    121 C         154.0049  176.0584    5.2795 C.3      20        0    0.0000
    122 C         153.5167  177.3792    5.8846 C.3      20        0    0.0000
    123 H         153.7846  175.2280    5.9617 H        20        0    0.0000
    124 H         155.0945  176.0823    5.1538 H        20        0    0.0000
    125 H         153.2359  178.0776    5.0865 H        20        0    0.0000
    126 H         152.6145  177.2073    6.4847 H        20        0    0.0000
    127 C         154.6037  178.0561    6.7889 C.3      21        0    0.0000
    128 C         154.4579  177.6652    8.2637 C.3      21        0    0.0000
    129 H         155.5972  177.7715    6.4208 H        21        0    0.0000
    130 H         154.5270  179.1449    6.6790 H        21        0    0.0000
    131 H         154.7602  178.5015    8.9062 H        21        0    0.0000
    132 H         153.4064  177.4545    8.4948 H        21        0    0.0000
    133 C         155.3182  176.4078    8.6329 C.3      22        0    0.0000
    134 C         155.9691  176.5347   10.0146 C.3      22        0    0.0000
    135 H         154.6769  175.5184    8.5994 H        22        0    0.0000
    136 H         156.0895  176.2692    7.8651 H        22        0    0.0000
    137 H         156.6104  177.4242   10.0481 H        22        0    0.0000
    138 H         155.1979  176.6733   10.7825 H        22        0    0.0000
    139 H         156.5673  175.6604   10.2714 H        22        0    0.0000
    140 H         159.2798  174.4287  -40.4349 H         0        0    0.0000
@<TRIPOS>BOND
     1     1     2      1
     2     1     3      1
     3     1     4      1
     4     1   140      H
     5     2     5      1
     6     2     6      1
     7     2     7      1
     8     7     8      1
     9     7     9      1
    10     7    10      1
    11     8    11      1
    12     8    12      1
    13     8    13      1
    14    13    14      1
    15    13    15      1
    16    13    16      1
    17    14    17      1
    18    14    18      1
    19    14    19      1
    20    19    20      1
    21    19    21      1
    22    19    22      1
    23    20    23      1
    24    20    24      1
    25    20    25      1
    26    25    26      1
    27    25    27      1
    28    25    28      1
    29    26    29      1
    30    26    30      1
    31    26    31      1
    32    31    32      1
    33    31    33      1
    34    31    34      1
    35    32    35      1
    36    32    36      1
    37    32    37      1
    38    37    38      1
    39    37    39      1
    40    37    40      1
    41    38    41      1
    42    38    42      1
    43    38    43      1
    44    43    44      1
    45    43    45      1
    46    43    46      1
    47    44    47      1
    48    44    48      1
    49    44    49      1
    50    49    50      1
    51    49    51      1
    52    49    52      1
    53    50    53      1
    54    50    54      1
    55    50    55      1
    56    55    56      1
    57    55    57      1
    58    55    58      1
    59    56    59      1
    60    56    60      1
    61    56    61      1
    62    61    62      1
    63    61    63      1
    64    61    64      1
    65    62    65      1
    66    62    66      1
    67    62    67      1
    68    67    68      1
    69    67    69      1
    70    67    70      1
    71    68    71      1
    72    68    72      1
    73    68    73      1
    74    73    74      1
    75    73    75      1
    76    73    76      1
    77    74    77      1
    78    74    78      1
    79    74    79      1
    80    79    80      1
    81    79    81      1
    82    79    82      1
    83    80    83      1
    84    80    84      1
    85    80    85      1
    86    85    86      1
    87    85    87      1
    88    85    88      1
    89    86    89      1
    90    86    90      1
    91    86    91      1
    92    91    92      1
    93    91    93      1
    94    91    94      1
    95    92    95      1
    96    92    96      1
    97    92    97      1
    98    97    98      1
    99    97    99      1
   100    97   100      1
   101    98   101      1
   102    98   102      1
   103    98   103      1
   104   103   104      1
   105   103   105      1
   106   103   106      1
   107   104   107      1
   108   104   108      1
   109   104   109      1
   110   109   110      1
   111   109   111      1
   112   109   112      1
   113   110   113      1
   114   110   114      1
   115   110   115      1
   116   115   116      1
   117   115   117      1
   118   115   118      1
   119   116   119      1
   120   116   120      1
   121   116   121      1
   122   121   122      1
   123   121   123      1
   124   121   124      1
   125   122   125      1
   126   122   126      1
   127   122   127      1
   128   127   128      1
   129   127   129      1
   130   127   130      1
   131   128   131      1
   132   128   132      1
   133   128   133      1
   134   133   134      1
   135   133   135      1
   136   133   136      1
   137   134   137      1
   138   134   138      1
   139   134   139      H
