###
### Created by PolyChef-cpp17 on Thu Feb 27 19:40:29 2025
###

@<TRIPOS>MOLECULE
NO_INFO
356 355 1 0 0
SMALL
USER_CHARGES


@<TRIPOS>ATOM
      1 C           9.2798   18.5487  120.6551 C.3       0        0    0.0000
      2 C           8.4513   17.3975  120.0742 C.3       0        0    0.0000
      3 H           8.8875   19.5102  120.3015 H         0        0    0.0000
      4 H          10.3162   18.4821  120.3014 H         0        0    0.0000
      5 H           8.4067   16.5675  120.7902 H         0        0    0.0000
      6 H           7.4177   17.7250  119.9068 H         0        0    0.0000
      7 C           9.0385   16.8666  118.7211 C.3       1        0    0.0000
      8 C           9.6331   17.9904  117.8653 C.3       1        0    0.0000
      9 H           9.8062   16.1141  118.9399 H         1        0    0.0000
     10 H           8.2427   16.3531  118.1675 H         1        0    0.0000
     11 H           8.9404   18.8402  117.8262 H         1        0    0.0000
     12 H          10.5599   18.3602  118.3211 H         1        0    0.0000
     13 C           9.9418   17.5225  116.4013 C.3       2        0    0.0000
     14 C           9.8843   18.6792  115.3974 C.3       2        0    0.0000
     15 H          10.9344   17.0559  116.3811 H         2        0    0.0000
     16 H           9.2219   16.7439  116.1198 H         2        0    0.0000
     17 H           8.9631   19.2573  115.5420 H         2        0    0.0000
     18 H          10.7195   19.3691  115.5703 H         2        0    0.0000
     19 C           9.9399   18.1803  113.9124 C.3       3        0    0.0000
     20 C           9.8049   19.3301  112.9079 C.3       3        0    0.0000
     21 H          10.8871   17.6505  113.7526 H         3        0    0.0000
     22 H           9.1387   17.4476  113.7552 H         3        0    0.0000
     23 H           8.8628   19.8668  113.0748 H         3        0    0.0000
     24 H          10.6125   20.0573  113.0579 H         3        0    0.0000
     25 C           9.8451   18.8295  111.4229 C.3       4        0    0.0000
     26 C           9.8478   19.9879  110.4193 C.3       4        0    0.0000
     27 H          10.7386   18.2086  111.2831 H         4        0    0.0000
     28 H           8.9791   18.1799  111.2452 H         4        0    0.0000
     29 H           8.9444   20.5973  110.5457 H         4        0    0.0000
     30 H          10.7027   20.6486  110.6098 H         4        0    0.0000
     31 C           9.9165   19.4879  108.9352 C.3       5        0    0.0000
     32 C           8.8537   20.1482  108.0500 C.3       5        0    0.0000
     33 H          10.9181   19.6950  108.5383 H         5        0    0.0000
     34 H           9.7919   18.3980  108.9231 H         5        0    0.0000
     35 H           7.8937   20.1860  108.5796 H         5        0    0.0000
     36 H           9.1357   21.1863  107.8345 H         5        0    0.0000
     37 C           8.6533   19.3872  106.6943 C.3       6        0    0.0000
     38 C           8.9886   20.2626  105.4817 C.3       6        0    0.0000
     39 H           9.2839   18.4895  106.6961 H         6        0    0.0000
     40 H           7.6138   19.0419  106.6329 H         6        0    0.0000
     41 H           8.0980   20.8163  105.1597 H         6        0    0.0000
     42 H           9.7430   21.0108  105.7550 H         6        0    0.0000
     43 C           9.5257   19.4220  104.2724 C.3       7        0    0.0000
     44 C           8.9313   19.8810  102.9364 C.3       7        0    0.0000
     45 H          10.6195   19.5015  104.2446 H         7        0    0.0000
     46 H           9.2911   18.3643  104.4450 H         7        0    0.0000
     47 H           7.8433   19.9896  103.0263 H         7        0    0.0000
     48 H           9.3255   20.8692  102.6689 H         7        0    0.0000
     49 C           9.2446   18.8798  101.7715 C.3       8        0    0.0000
     50 C           9.0639   19.5202  100.3908 C.3       8        0    0.0000
     51 H          10.2730   18.5153  101.8855 H         8        0    0.0000
     52 H           8.5881   18.0063  101.8698 H         8        0    0.0000
     53 H           8.0159   19.8094  100.2445 H         8        0    0.0000
     54 H           9.6572   20.4405  100.3225 H         8        0    0.0000
     55 C           9.4893   18.5574   99.2291 C.3       9        0    0.0000
     56 C           9.2354   19.1678   97.8464 C.3       9        0    0.0000
     57 H          10.5529   18.3138   99.3432 H         9        0    0.0000
     58 H           8.9375   17.6147   99.3312 H         9        0    0.0000
     59 H           8.1755   19.4304   97.7400 H         9        0    0.0000
     60 H           9.8034   20.1000   97.7367 H         9        0    0.0000
     61 C           9.6337   18.1936   96.6846 C.3      10        0    0.0000
     62 C           9.3915   18.8089   95.3019 C.3      10        0    0.0000
     63 H          10.6912   17.9239   96.7963 H        10        0    0.0000
     64 H           9.0590   17.2650   96.7891 H        10        0    0.0000
     65 H           8.3341   19.0794   95.1906 H        10        0    0.0000
     66 H           9.9669   19.7370   95.1972 H        10        0    0.0000
     67 C           9.7887   17.8342   94.1401 C.3      11        0    0.0000
     68 C           9.5437   18.4483   92.7574 C.3      11        0    0.0000
     69 H          10.8466   17.5654   94.2503 H        11        0    0.0000
     70 H           9.2149   16.9052   94.2462 H        11        0    0.0000
     71 H           8.4861   18.7184   92.6478 H        11        0    0.0000
     72 H          10.1186   19.3766   92.6509 H        11        0    0.0000
     73 C           9.9391   17.4730   91.5956 C.3      12        0    0.0000
     74 C           9.6971   18.0883   90.2129 C.3      12        0    0.0000
     75 H          10.9962   17.2011   91.7065 H        12        0    0.0000
     76 H           9.3626   16.5456   91.7008 H        12        0    0.0000
     77 H           8.6407   18.3630   90.1032 H        12        0    0.0000
     78 H          10.2760   19.0141   90.1066 H        12        0    0.0000
     79 C          10.0884   17.1113   89.0511 C.3      13        0    0.0000
     80 C           9.8382   17.7233   87.6684 C.3      13        0    0.0000
     81 H          11.1465   16.8416   89.1572 H        13        0    0.0000
     82 H           9.5142   16.1831   89.1611 H        13        0    0.0000
     83 H           8.7815   17.9991   87.5648 H        13        0    0.0000
     84 H          10.4176   18.6481   87.5559 H        13        0    0.0000
     85 C          10.2208   16.7429   86.5066 C.3      14        0    0.0000
     86 C           9.9649   17.3527   85.1240 C.3      14        0    0.0000
     87 H          11.2787   16.4706   86.6077 H        14        0    0.0000
     88 H           9.6447   15.8164   86.6217 H        14        0    0.0000
     89 H           8.9420   17.7452   85.0695 H        14        0    0.0000
     90 H          10.6379   18.2029   84.9574 H        14        0    0.0000
     91 C          10.1693   16.3127   83.9689 C.3      15        0    0.0000
     92 C           9.9509   16.9322   82.5842 C.3      15        0    0.0000
     93 H          11.1830   15.8994   84.0405 H        15        0    0.0000
     94 H           9.4765   15.4756   84.1201 H        15        0    0.0000
     95 H           8.9283   16.7334   82.2402 H        15        0    0.0000
     96 H          10.0585   18.0226   82.6387 H        15        0    0.0000
     97 C          10.9589   16.3775   81.5195 C.3      16        0    0.0000
     98 C          10.7902   17.0515   80.1534 C.3      16        0    0.0000
     99 H          11.9811   16.5267   81.8889 H        16        0    0.0000
    100 H          10.8130   15.2943   81.4250 H        16        0    0.0000
    101 H           9.9454   16.6043   79.6150 H        16        0    0.0000
    102 H          10.5527   18.1144   80.2851 H        16        0    0.0000
    103 C          12.0770   16.9274   79.2667 C.3      17        0    0.0000
    104 C          12.3740   18.2152   78.4905 C.3      17        0    0.0000
    105 H          12.9273   16.6720   79.9112 H        17        0    0.0000
    106 H          11.9470   16.0899   78.5701 H        17        0    0.0000
    107 H          11.7905   18.2378   77.5618 H        17        0    0.0000
    108 H          12.0647   19.0884   79.0782 H        17        0    0.0000
    109 C          13.8943   18.3578   78.1357 C.3      18        0    0.0000
    110 C          14.3695   19.8139   78.1905 C.3      18        0    0.0000
    111 H          14.4791   17.7448   78.8327 H        18        0    0.0000
    112 H          14.0638   17.9442   77.1338 H        18        0    0.0000
    113 H          13.8123   20.4189   77.4645 H        18        0    0.0000
    114 H          14.1630   20.2400   79.1801 H        18        0    0.0000
    115 C          15.9022   19.9503   77.8913 C.3      19        0    0.0000
    116 C          16.3450   21.4136   77.7834 C.3      19        0    0.0000
    117 H          16.4641   19.4450   78.6867 H        19        0    0.0000
    118 H          16.1292   19.4188   76.9588 H        19        0    0.0000
    119 H          15.7181   21.9436   77.0556 H        19        0    0.0000
    120 H          16.2069   21.9205   78.7464 H        19        0    0.0000
    121 C          17.8458   21.5499   77.3514 C.3      20        0    0.0000
    122 C          18.2609   23.0109   77.1465 C.3      20        0    0.0000
    123 H          18.4779   21.0830   78.1169 H        20        0    0.0000
    124 H          18.0003   20.9816   76.4258 H        20        0    0.0000
    125 H          17.5896   23.4953   76.4265 H        20        0    0.0000
    126 H          18.1649   23.5649   78.0886 H        20        0    0.0000
    127 C          19.7353   23.1429   76.6306 C.3      21        0    0.0000
    128 C          20.1385   24.6021   76.3912 C.3      21        0    0.0000
    129 H          20.4090   22.6819   77.3636 H        21        0    0.0000
    130 H          19.8381   22.5671   75.7025 H        21        0    0.0000
    131 H          19.2437   25.2222   76.2556 H        21        0    0.0000
    132 H          20.6646   24.9960   77.2696 H        21        0    0.0000
    133 C          21.0613   24.7649   75.1344 C.3      22        0    0.0000
    134 C          21.3626   26.2347   74.8216 C.3      22        0    0.0000
    135 H          21.9962   24.2182   75.3091 H        22        0    0.0000
    136 H          20.5742   24.2894   74.2741 H        22        0    0.0000
    137 H          20.6101   26.8810   75.2903 H        22        0    0.0000
    138 H          22.3322   26.5191   75.2487 H        22        0    0.0000
    139 C          21.3855   26.5215   73.2806 C.3      23        0    0.0000
    140 C          20.9698   27.9594   72.9511 C.3      23        0    0.0000
    141 H          22.3953   26.3252   72.8994 H        23        0    0.0000
    142 H          20.7160   25.8120   72.7788 H        23        0    0.0000
    143 H          20.0998   28.2471   73.5544 H        23        0    0.0000
    144 H          21.7778   28.6539   73.2124 H        23        0    0.0000
    145 C          20.6162   28.1430   71.4349 C.3      24        0    0.0000
    146 C          19.3761   29.0200   71.2297 C.3      24        0    0.0000
    147 H          21.4790   28.5856   70.9217 H        24        0    0.0000
    148 H          20.4563   27.1545   70.9869 H        24        0    0.0000
    149 H          18.6733   28.8778   72.0599 H        24        0    0.0000
    150 H          19.6597   30.0797   71.2350 H        24        0    0.0000
    151 C          18.6390   28.7009   69.8834 C.3      25        0    0.0000
    152 C          18.9240   29.7495   68.8026 C.3      25        0    0.0000
    153 H          18.9512   27.7082   69.5360 H        25        0    0.0000
    154 H          17.5606   28.6426   70.0760 H        25        0    0.0000
    155 H          18.0005   29.9945   68.2634 H        25        0    0.0000
    156 H          19.2753   30.6803   69.2648 H        25        0    0.0000
    157 C          19.9977   29.2616   67.7698 C.3      26        0    0.0000
    158 C          19.4701   29.2798   66.3310 C.3      26        0    0.0000
    159 H          20.8849   29.9014   67.8533 H        26        0    0.0000
    160 H          20.3143   28.2470   68.0416 H        26        0    0.0000
    161 H          18.6055   29.9510   66.2558 H        26        0    0.0000
    162 H          20.2368   29.6768   65.6542 H        26        0    0.0000
    163 C          19.0475   27.8540   65.8350 C.3      27        0    0.0000
    164 C          19.7481   27.4618   64.5295 C.3      27        0    0.0000
    165 H          19.2788   27.1236   66.6202 H        27        0    0.0000
    166 H          17.9592   27.8354   65.6981 H        27        0    0.0000
    167 H          19.0934   27.6696   63.6741 H        27        0    0.0000
    168 H          20.6510   28.0692   64.3900 H        27        0    0.0000
    169 C          20.1492   25.9466   64.5025 C.3      28        0    0.0000
    170 C          21.6062   25.7389   64.0745 C.3      28        0    0.0000
    171 H          19.9856   25.5197   65.4998 H        28        0    0.0000
    172 H          19.4766   25.4149   63.8180 H        28        0    0.0000
    173 H          21.6546   25.5133   63.0020 H        28        0    0.0000
    174 H          22.1786   26.6620   64.2284 H        28        0    0.0000
    175 C          22.2984   24.5770   64.8671 C.3      29        0    0.0000
    176 C          22.1492   23.2240   64.1627 C.3      29        0    0.0000
    177 H          23.3606   24.8197   64.9945 H        29        0    0.0000
    178 H          21.8637   24.5272   65.8731 H        29        0    0.0000
    179 H          21.9177   23.3761   63.1011 H        29        0    0.0000
    180 H          23.0969   22.6727   64.2025 H        29        0    0.0000
    181 C          21.0237   22.3412   64.8039 C.3      30        0    0.0000
    182 C          21.2970   20.8421   64.6398 C.3      30        0    0.0000
    183 H          20.9393   22.5939   65.8681 H        30        0    0.0000
    184 H          20.0636   22.6013   64.3413 H        30        0    0.0000
    185 H          20.4717   20.2601   65.0684 H        30        0    0.0000
    186 H          21.3455   20.5829   63.5749 H        30        0    0.0000
    187 C          22.6354   20.4034   65.3281 C.3      31        0    0.0000
    188 C          22.5517   18.9889   65.9123 C.3      31        0    0.0000
    189 H          23.4465   20.4588   64.5914 H        31        0    0.0000
    190 H          22.8787   21.1234   66.1192 H        31        0    0.0000
    191 H          21.5032   18.7114   66.0771 H        31        0    0.0000
    192 H          22.9615   18.2627   65.1994 H        31        0    0.0000
    193 C          23.3279   18.8592   67.2681 C.3      32        0    0.0000
    194 C          22.8799   17.6385   68.0793 C.3      32        0    0.0000
    195 H          24.4023   18.7962   67.0558 H        32        0    0.0000
    196 H          23.1753   19.7754   67.8519 H        32        0    0.0000
    197 H          21.7850   17.6091   68.1413 H        32        0    0.0000
    198 H          23.1917   16.7160   67.5740 H        32        0    0.0000
    199 C          23.4682   17.6423   69.5324 C.3      33        0    0.0000
    200 C          23.1858   16.3327   70.2768 C.3      33        0    0.0000
    201 H          24.5498   17.8169   69.4755 H        33        0    0.0000
    202 H          23.0411   18.4885   70.0846 H        33        0    0.0000
    203 H          22.1049   16.2023   70.4117 H        33        0    0.0000
    204 H          23.5343   15.4792   69.6821 H        33        0    0.0000
    205 C          23.8795   16.2865   71.6818 C.3      34        0    0.0000
    206 C          24.5855   14.9503   71.9374 C.3      34        0    0.0000
    207 H          24.5999   17.1112   71.7478 H        34        0    0.0000
    208 H          23.1231   16.4663   72.4558 H        34        0    0.0000
    209 H          23.8583   14.1973   72.2655 H        34        0    0.0000
    210 H          25.0292   14.5752   71.0067 H        34        0    0.0000
    211 C          25.7117   15.0711   73.0212 C.3      35        0    0.0000
    212 C          25.3367   14.3664   74.3295 C.3      35        0    0.0000
    213 H          26.6385   14.6456   72.6170 H        35        0    0.0000
    214 H          25.9087   16.1338   73.2094 H        35        0    0.0000
    215 H          24.2492   14.2339   74.3871 H        35        0    0.0000
    216 H          25.7782   13.3625   74.3560 H        35        0    0.0000
    217 C          25.8162   15.1627   75.5918 C.3      36        0    0.0000
    218 C          26.9978   14.4834   76.2928 C.3      36        0    0.0000
    219 H          26.0945   16.1784   75.2845 H        36        0    0.0000
    220 H          24.9738   15.2637   76.2873 H        36        0    0.0000
    221 H          26.6316   13.7737   77.0450 H        36        0    0.0000
    222 H          27.5810   13.9015   75.5683 H        36        0    0.0000
    223 C          27.9471   15.5162   76.9925 C.3      37        0    0.0000
    224 C          28.5372   14.9712   78.2978 C.3      37        0    0.0000
    225 H          28.7532   15.7827   76.2977 H        37        0    0.0000
    226 H          27.3840   16.4368   77.1897 H        37        0    0.0000
    227 H          27.7533   14.4828   78.8899 H        37        0    0.0000
    228 H          29.2905   14.2043   78.0788 H        37        0    0.0000
    229 C          29.1990   16.0963   79.1660 C.3      38        0    0.0000
    230 C          29.4633   15.6397   80.6050 C.3      38        0    0.0000
    231 H          30.1386   16.4033   78.6902 H        38        0    0.0000
    232 H          28.5432   16.9757   79.1648 H        38        0    0.0000
    233 H          28.5587   15.1851   81.0275 H        38        0    0.0000
    234 H          30.2402   14.8653   80.6173 H        38        0    0.0000
    235 C          29.9139   16.8223   81.5302 C.3      39        0    0.0000
    236 C          29.8646   16.4488   83.0158 C.3      39        0    0.0000
    237 H          30.9318   17.1215   81.2511 H        39        0    0.0000
    238 H          29.2674   17.6876   81.3382 H        39        0    0.0000
    239 H          28.8988   15.9871   83.2558 H        39        0    0.0000
    240 H          30.6357   15.7017   83.2416 H        39        0    0.0000
    241 C          30.0764   17.6911   83.9481 C.3      40        0    0.0000
    242 C          30.0033   17.3217   85.4338 C.3      40        0    0.0000
    243 H          31.0500   18.1424   83.7202 H        40        0    0.0000
    244 H          29.3161   18.4454   83.7102 H        40        0    0.0000
    245 H          29.0233   16.8863   85.6653 H        40        0    0.0000
    246 H          30.7519   16.5547   85.6679 H        40        0    0.0000
    247 C          30.2393   18.5596   86.3661 C.3      41        0    0.0000
    248 C          30.1648   18.1904   87.8518 C.3      41        0    0.0000
    249 H          31.2198   18.9942   86.1353 H        41        0    0.0000
    250 H          29.4913   19.3269   86.1312 H        41        0    0.0000
    251 H          30.4975   19.0358   88.4666 H        41        0    0.0000
    252 H          29.1256   17.9836   88.1363 H        41        0    0.0000
    253 C          31.0420   16.9380   88.1975 C.3      42        0    0.0000
    254 C          30.8904   16.5087   89.6610 C.3      42        0    0.0000
    255 H          30.7585   16.1131   87.5322 H        42        0    0.0000
    256 H          32.0919   17.1710   87.9807 H        42        0    0.0000
    257 H          30.4153   15.5214   89.7161 H        42        0    0.0000
    258 H          31.8780   16.4096   90.1282 H        42        0    0.0000
    259 C          30.0375   17.5270   90.4935 C.3      43        0    0.0000
    260 C          30.0701   17.2210   91.9949 C.3      43        0    0.0000
    261 H          30.4156   18.5400   90.3078 H        43        0    0.0000
    262 H          29.0036   17.5047   90.1274 H        43        0    0.0000
    263 H          29.3411   16.4370   92.2350 H        43        0    0.0000
    264 H          31.0559   16.8319   92.2782 H        43        0    0.0000
    265 C          29.7568   18.4860   92.8661 C.3      44        0    0.0000
    266 C          29.8021   18.1830   94.3678 C.3      44        0    0.0000
    267 H          30.4799   19.2733   92.6192 H        44        0    0.0000
    268 H          28.7669   18.8696   92.5894 H        44        0    0.0000
    269 H          29.7348   19.1154   94.9419 H        44        0    0.0000
    270 H          28.9364   17.5732   94.6547 H        44        0    0.0000
    271 C          31.1118   17.4278   94.7822 C.3      45        0    0.0000
    272 C          31.0995   17.0098   96.2567 C.3      45        0    0.0000
    273 H          31.2284   16.5446   94.1419 H        45        0    0.0000
    274 H          31.9729   18.0775   94.5826 H        45        0    0.0000
    275 H          31.0439   15.9171   96.3375 H        45        0    0.0000
    276 H          32.0351   17.3144   96.7418 H        45        0    0.0000
    277 C          29.8960   17.6364   97.0418 C.3      46        0    0.0000
    278 C          29.9718   17.3509   98.5457 C.3      46        0    0.0000
    279 H          29.8834   18.7190   96.8646 H        46        0    0.0000
    280 H          28.9600   17.2389   96.6302 H        46        0    0.0000
    281 H          29.3486   16.4834   98.7958 H        46        0    0.0000
    282 H          30.9999   17.0922   98.8281 H        46        0    0.0000
    283 C          29.5039   18.5743   99.4070 C.3      47        0    0.0000
    284 C          29.6118   18.3009  100.9112 C.3      47        0    0.0000
    285 H          30.1108   19.4481   99.1391 H        47        0    0.0000
    286 H          28.4675   18.8174   99.1422 H        47        0    0.0000
    287 H          30.6635   18.3204  101.2226 H        47        0    0.0000
    288 H          29.1016   19.0918  101.4749 H        47        0    0.0000
    289 C          28.9926   16.9169  101.3094 C.3      48        0    0.0000
    290 C          29.2922   16.5438  102.7654 C.3      48        0    0.0000
    291 H          27.9084   16.9545  101.1462 H        48        0    0.0000
    292 H          29.3861   16.1463  100.6350 H        48        0    0.0000
    293 H          28.3860   16.1587  103.2492 H        48        0    0.0000
    294 H          30.0356   15.7378  102.8019 H        48        0    0.0000
    295 C          29.8276   17.7628  103.5930 C.3      49        0    0.0000
    296 C          30.0017   17.4253  105.0778 C.3      49        0    0.0000
    297 H          30.7849   18.0869  103.1661 H        49        0    0.0000
    298 H          29.1308   18.6022  103.4772 H        49        0    0.0000
    299 H          29.3961   16.5482  105.3377 H        49        0    0.0000
    300 H          31.0460   17.1591  105.2831 H        49        0    0.0000
    301 C          29.5914   18.6169  106.0100 C.3      50        0    0.0000
    302 C          29.7042   18.2576  107.4957 C.3      50        0    0.0000
    303 H          30.2293   19.4799  105.7822 H        50        0    0.0000
    304 H          28.5625   18.9141  105.7720 H        50        0    0.0000
    305 H          29.6294   19.1644  108.1087 H        50        0    0.0000
    306 H          28.8702   17.6086  107.7902 H        50        0    0.0000
    307 C          31.0524   17.5311  107.8306 C.3      51        0    0.0000
    308 C          31.1076   17.0505  109.2849 C.3      51        0    0.0000
    309 H          31.1746   16.6807  107.1484 H        51        0    0.0000
    310 H          31.8837   18.2182  107.6296 H        51        0    0.0000
    311 H          31.0831   15.9543  109.3200 H        51        0    0.0000
    312 H          32.0531   17.3595  109.7475 H        51        0    0.0000
    313 C          29.9196   17.6102  110.1410 C.3      52        0    0.0000
    314 C          30.0751   17.2874  111.6312 C.3      52        0    0.0000
    315 H          29.8597   18.6959  109.9956 H        52        0    0.0000
    316 H          28.9806   17.1891  109.7609 H        52        0    0.0000
    317 H          29.6345   16.3073  111.8518 H        52        0    0.0000
    318 H          31.1384   17.2209  111.8928 H        52        0    0.0000
    319 C          29.3961   18.3641  112.5463 C.3      53        0    0.0000
    320 C          29.5602   18.0466  114.0367 C.3      53        0    0.0000
    321 H          29.8315   19.3454  112.3206 H        53        0    0.0000
    322 H          28.3312   18.4254  112.2897 H        53        0    0.0000
    323 H          29.2149   18.8939  114.6420 H        53        0    0.0000
    324 H          28.9336   17.1884  114.3097 H        53        0    0.0000
    325 C          31.0474   17.7274  114.4159 C.3      54        0    0.0000
    326 C          31.1976   17.3219  115.8863 C.3      54        0    0.0000
    327 H          31.4137   16.9240  113.7649 H        54        0    0.0000
    328 H          31.6635   18.6100  114.2043 H        54        0    0.0000
    329 H          31.5298   16.2787  115.9568 H        54        0    0.0000
    330 H          31.9718   17.9322  116.3676 H        54        0    0.0000
    331 C          29.8589   17.4810  116.6863 C.3      55        0    0.0000
    332 C          30.0578   17.2945  118.1945 C.3      55        0    0.0000
    333 H          29.4409   18.4745  116.4820 H        55        0    0.0000
    334 H          29.1327   16.7501  116.3094 H        55        0    0.0000
    335 H          29.9932   16.2304  118.4536 H        55        0    0.0000
    336 H          31.0610   17.6294  118.4859 H        55        0    0.0000
    337 C          28.9970   18.0847  119.0358 C.3      56        0    0.0000
    338 C          29.2007   17.9044  120.5442 C.3      56        0    0.0000
    339 H          29.0577   19.1479  118.7725 H        56        0    0.0000
    340 H          27.9940   17.7457  118.7485 H        56        0    0.0000
    341 H          29.3574   18.8795  121.0218 H        56        0    0.0000
    342 H          28.2991   17.4733  120.9966 H        56        0    0.0000
    343 C          30.4227   16.9789  120.8723 C.3      57        0    0.0000
    344 C          30.4391   16.5370  122.3397 C.3      57        0    0.0000
    345 H          30.3877   16.1009  120.2154 H        57        0    0.0000
    346 H          31.3481   17.5162  120.6308 H        57        0    0.0000
    347 H          31.2999   15.8828  122.5260 H        57        0    0.0000
    348 H          30.5591   17.4094  122.9940 H        57        0    0.0000
    349 C          29.1297   15.7770  122.7461 C.3      58        0    0.0000
    350 C          29.4238   14.4304  123.4162 C.3      58        0    0.0000
    351 H          28.5463   16.4142  123.4223 H        58        0    0.0000
    352 H          28.5164   15.6249  121.8493 H        58        0    0.0000
    353 H          30.0071   13.7931  122.7400 H        58        0    0.0000
    354 H          30.0371   14.5825  124.3130 H        58        0    0.0000
    355 H          28.5133   13.9019  123.6987 H        58        0    0.0000
    356 H           9.2798   18.5487  121.7450 H         0        0    0.0000
@<TRIPOS>BOND
     1     1     2      1
     2     1     3      1
     3     1     4      1
     4     1   356      H
     5     2     5      1
     6     2     6      1
     7     2     7      1
     8     7     8      1
     9     7     9      1
    10     7    10      1
    11     8    11      1
    12     8    12      1
    13     8    13      1
    14    13    14      1
    15    13    15      1
    16    13    16      1
    17    14    17      1
    18    14    18      1
    19    14    19      1
    20    19    20      1
    21    19    21      1
    22    19    22      1
    23    20    23      1
    24    20    24      1
    25    20    25      1
    26    25    26      1
    27    25    27      1
    28    25    28      1
    29    26    29      1
    30    26    30      1
    31    26    31      1
    32    31    32      1
    33    31    33      1
    34    31    34      1
    35    32    35      1
    36    32    36      1
    37    32    37      1
    38    37    38      1
    39    37    39      1
    40    37    40      1
    41    38    41      1
    42    38    42      1
    43    38    43      1
    44    43    44      1
    45    43    45      1
    46    43    46      1
    47    44    47      1
    48    44    48      1
    49    44    49      1
    50    49    50      1
    51    49    51      1
    52    49    52      1
    53    50    53      1
    54    50    54      1
    55    50    55      1
    56    55    56      1
    57    55    57      1
    58    55    58      1
    59    56    59      1
    60    56    60      1
    61    56    61      1
    62    61    62      1
    63    61    63      1
    64    61    64      1
    65    62    65      1
    66    62    66      1
    67    62    67      1
    68    67    68      1
    69    67    69      1
    70    67    70      1
    71    68    71      1
    72    68    72      1
    73    68    73      1
    74    73    74      1
    75    73    75      1
    76    73    76      1
    77    74    77      1
    78    74    78      1
    79    74    79      1
    80    79    80      1
    81    79    81      1
    82    79    82      1
    83    80    83      1
    84    80    84      1
    85    80    85      1
    86    85    86      1
    87    85    87      1
    88    85    88      1
    89    86    89      1
    90    86    90      1
    91    86    91      1
    92    91    92      1
    93    91    93      1
    94    91    94      1
    95    92    95      1
    96    92    96      1
    97    92    97      1
    98    97    98      1
    99    97    99      1
   100    97   100      1
   101    98   101      1
   102    98   102      1
   103    98   103      1
   104   103   104      1
   105   103   105      1
   106   103   106      1
   107   104   107      1
   108   104   108      1
   109   104   109      1
   110   109   110      1
   111   109   111      1
   112   109   112      1
   113   110   113      1
   114   110   114      1
   115   110   115      1
   116   115   116      1
   117   115   117      1
   118   115   118      1
   119   116   119      1
   120   116   120      1
   121   116   121      1
   122   121   122      1
   123   121   123      1
   124   121   124      1
   125   122   125      1
   126   122   126      1
   127   122   127      1
   128   127   128      1
   129   127   129      1
   130   127   130      1
   131   128   131      1
   132   128   132      1
   133   128   133      1
   134   133   134      1
   135   133   135      1
   136   133   136      1
   137   134   137      1
   138   134   138      1
   139   134   139      1
   140   139   140      1
   141   139   141      1
   142   139   142      1
   143   140   143      1
   144   140   144      1
   145   140   145      1
   146   145   146      1
   147   145   147      1
   148   145   148      1
   149   146   149      1
   150   146   150      1
   151   146   151      1
   152   151   152      1
   153   151   153      1
   154   151   154      1
   155   152   155      1
   156   152   156      1
   157   152   157      1
   158   157   158      1
   159   157   159      1
   160   157   160      1
   161   158   161      1
   162   158   162      1
   163   158   163      1
   164   163   164      1
   165   163   165      1
   166   163   166      1
   167   164   167      1
   168   164   168      1
   169   164   169      1
   170   169   170      1
   171   169   171      1
   172   169   172      1
   173   170   173      1
   174   170   174      1
   175   170   175      1
   176   175   176      1
   177   175   177      1
   178   175   178      1
   179   176   179      1
   180   176   180      1
   181   176   181      1
   182   181   182      1
   183   181   183      1
   184   181   184      1
   185   182   185      1
   186   182   186      1
   187   182   187      1
   188   187   188      1
   189   187   189      1
   190   187   190      1
   191   188   191      1
   192   188   192      1
   193   188   193      1
   194   193   194      1
   195   193   195      1
   196   193   196      1
   197   194   197      1
   198   194   198      1
   199   194   199      1
   200   199   200      1
   201   199   201      1
   202   199   202      1
   203   200   203      1
   204   200   204      1
   205   200   205      1
   206   205   206      1
   207   205   207      1
   208   205   208      1
   209   206   209      1
   210   206   210      1
   211   206   211      1
   212   211   212      1
   213   211   213      1
   214   211   214      1
   215   212   215      1
   216   212   216      1
   217   212   217      1
   218   217   218      1
   219   217   219      1
   220   217   220      1
   221   218   221      1
   222   218   222      1
   223   218   223      1
   224   223   224      1
   225   223   225      1
   226   223   226      1
   227   224   227      1
   228   224   228      1
   229   224   229      1
   230   229   230      1
   231   229   231      1
   232   229   232      1
   233   230   233      1
   234   230   234      1
   235   230   235      1
   236   235   236      1
   237   235   237      1
   238   235   238      1
   239   236   239      1
   240   236   240      1
   241   236   241      1
   242   241   242      1
   243   241   243      1
   244   241   244      1
   245   242   245      1
   246   242   246      1
   247   242   247      1
   248   247   248      1
   249   247   249      1
   250   247   250      1
   251   248   251      1
   252   248   252      1
   253   248   253      1
   254   253   254      1
   255   253   255      1
   256   253   256      1
   257   254   257      1
   258   254   258      1
   259   254   259      1
   260   259   260      1
   261   259   261      1
   262   259   262      1
   263   260   263      1
   264   260   264      1
   265   260   265      1
   266   265   266      1
   267   265   267      1
   268   265   268      1
   269   266   269      1
   270   266   270      1
   271   266   271      1
   272   271   272      1
   273   271   273      1
   274   271   274      1
   275   272   275      1
   276   272   276      1
   277   272   277      1
   278   277   278      1
   279   277   279      1
   280   277   280      1
   281   278   281      1
   282   278   282      1
   283   278   283      1
   284   283   284      1
   285   283   285      1
   286   283   286      1
   287   284   287      1
   288   284   288      1
   289   284   289      1
   290   289   290      1
   291   289   291      1
   292   289   292      1
   293   290   293      1
   294   290   294      1
   295   290   295      1
   296   295   296      1
   297   295   297      1
   298   295   298      1
   299   296   299      1
   300   296   300      1
   301   296   301      1
   302   301   302      1
   303   301   303      1
   304   301   304      1
   305   302   305      1
   306   302   306      1
   307   302   307      1
   308   307   308      1
   309   307   309      1
   310   307   310      1
   311   308   311      1
   312   308   312      1
   313   308   313      1
   314   313   314      1
   315   313   315      1
   316   313   316      1
   317   314   317      1
   318   314   318      1
   319   314   319      1
   320   319   320      1
   321   319   321      1
   322   319   322      1
   323   320   323      1
   324   320   324      1
   325   320   325      1
   326   325   326      1
   327   325   327      1
   328   325   328      1
   329   326   329      1
   330   326   330      1
   331   326   331      1
   332   331   332      1
   333   331   333      1
   334   331   334      1
   335   332   335      1
   336   332   336      1
   337   332   337      1
   338   337   338      1
   339   337   339      1
   340   337   340      1
   341   338   341      1
   342   338   342      1
   343   338   343      1
   344   343   344      1
   345   343   345      1
   346   343   346      1
   347   344   347      1
   348   344   348      1
   349   344   349      1
   350   349   350      1
   351   349   351      1
   352   349   352      1
   353   350   353      1
   354   350   354      1
   355   350   355      H
