###
### Created by PolyChef-cpp17 on Thu Feb 27 19:40:30 2025
###

@<TRIPOS>MOLECULE
NO_INFO
446 445 1 0 0
SMALL
USER_CHARGES


@<TRIPOS>ATOM
      1 C          39.2798    1.2287  -39.3449 C.3       0        0    0.0000
      2 C          37.8706    1.0682  -38.7641 C.3       0        0    0.0000
      3 H          39.9271    0.4166  -38.9913 H         0        0    0.0000
      4 H          39.7280    2.1655  -38.9913 H         0        0    0.0000
      5 H          37.3721    2.0440  -38.7114 H         0        0    0.0000
      6 H          37.2612    0.4384  -39.4240 H         0        0    0.0000
      7 C          37.8873    0.4313  -37.3318 C.3       1        0    0.0000
      8 C          39.1650    0.7751  -36.5581 C.3       1        0    0.0000
      9 H          37.0070    0.7815  -36.7787 H         1        0    0.0000
     10 H          37.7869   -0.6569  -37.4275 H         1        0    0.0000
     11 H          40.0453    0.6000  -37.1889 H         1        0    0.0000
     12 H          39.1714    1.8406  -36.2970 H         1        0    0.0000
     13 C          39.3090   -0.0680  -35.2444 C.3       2        0    0.0000
     14 C          40.2042    0.6201  -34.2079 C.3       2        0    0.0000
     15 H          38.3106   -0.2406  -34.8237 H         2        0    0.0000
     16 H          39.7180   -1.0534  -35.4996 H         2        0    0.0000
     17 H          41.2592    0.5028  -34.4850 H         2        0    0.0000
     18 H          40.0007    1.6980  -34.1915 H         2        0    0.0000
     19 C          39.9936    0.0441  -32.7652 C.3       3        0    0.0000
     20 C          40.6124    0.9396  -31.6862 C.3       3        0    0.0000
     21 H          38.9179   -0.0737  -32.5850 H         3        0    0.0000
     22 H          40.4328   -0.9602  -32.7178 H         3        0    0.0000
     23 H          41.7015    0.9813  -31.8111 H         3        0    0.0000
     24 H          40.2434    1.9672  -31.7932 H         3        0    0.0000
     25 C          40.2888    0.4348  -30.2378 C.3       4        0    0.0000
     26 C          40.8865    1.3443  -29.1586 C.3       4        0    0.0000
     27 H          39.1998    0.3756  -30.1190 H         4        0    0.0000
     28 H          40.6740   -0.5862  -30.1249 H         4        0    0.0000
     29 H          41.9758    1.4009  -29.2754 H         4        0    0.0000
     30 H          40.5038    2.3660  -29.2736 H         4        0    0.0000
     31 C          40.5590    0.8421  -27.7102 C.3       5        0    0.0000
     32 C          41.1400    1.7623  -26.6311 C.3       5        0    0.0000
     33 H          39.4699    0.7718  -27.5981 H         5        0    0.0000
     34 H          40.9542   -0.1743  -27.5905 H         5        0    0.0000
     35 H          42.2292    1.8316  -26.7424 H         5        0    0.0000
     36 H          40.7458    2.7790  -26.7515 H         5        0    0.0000
     37 C          40.8110    1.2611  -25.1826 C.3       6        0    0.0000
     38 C          41.4225    2.1614  -24.1035 C.3       6        0    0.0000
     39 H          39.7214    1.2171  -25.0627 H         6        0    0.0000
     40 H          41.1819    0.2347  -25.0708 H         6        0    0.0000
     41 H          42.5115    2.2098  -24.2268 H         6        0    0.0000
     42 H          41.0473    3.1866  -24.2119 H         6        0    0.0000
     43 C          41.0999    1.6558  -22.6551 C.3       7        0    0.0000
     44 C          41.0534    2.8007  -21.6372 C.3       7        0    0.0000
     45 H          40.1386    1.1273  -22.6710 H         7        0    0.0000
     46 H          41.8588    0.9206  -22.3600 H         7        0    0.0000
     47 H          42.0452    3.2600  -21.5421 H         7        0    0.0000
     48 H          40.3740    3.5878  -21.9870 H         7        0    0.0000
     49 C          40.5821    2.3185  -20.2220 C.3       8        0    0.0000
     50 C          41.5571    2.7305  -19.1135 C.3       8        0    0.0000
     51 H          39.5866    2.7332  -20.0206 H         8        0    0.0000
     52 H          40.4713    1.2272  -20.2390 H         8        0    0.0000
     53 H          42.5901    2.6626  -19.4767 H         8        0    0.0000
     54 H          41.3893    3.7784  -18.8352 H         8        0    0.0000
     55 C          41.4121    1.8382  -17.8328 C.3       9        0    0.0000
     56 C          41.1306    2.6681  -16.5754 C.3       9        0    0.0000
     57 H          40.6030    1.1153  -17.9953 H         9        0    0.0000
     58 H          42.3327    1.2563  -17.7012 H         9        0    0.0000
     59 H          42.0504    3.1604  -16.2359 H         9        0    0.0000
     60 H          40.4125    3.4654  -16.8039 H         9        0    0.0000
     61 C          40.5617    1.7964  -15.4032 C.3      10        0    0.0000
     62 C          41.0070    2.3090  -14.0292 C.3      10        0    0.0000
     63 H          39.4665    1.7910  -15.4659 H        10        0    0.0000
     64 H          40.8904    0.7590  -15.5423 H        10        0    0.0000
     65 H          42.0936    2.4598  -14.0180 H        10        0    0.0000
     66 H          40.5512    3.2860  -13.8264 H        10        0    0.0000
     67 C          40.6220    1.3221  -12.8736 C.3      11        0    0.0000
     68 C          40.8773    1.9234  -11.4871 C.3      11        0    0.0000
     69 H          39.5639    1.0518  -12.9774 H        11        0    0.0000
     70 H          41.1971    0.3956  -12.9935 H        11        0    0.0000
     71 H          41.9430    2.1548  -11.3678 H        11        0    0.0000
     72 H          40.3354    2.8716  -11.3827 H        11        0    0.0000
     73 C          40.4370    0.9599  -10.3315 C.3      12        0    0.0000
     74 C          40.7027    1.5565   -8.9450 C.3      12        0    0.0000
     75 H          39.3693    0.7352  -10.4460 H        12        0    0.0000
     76 H          40.9726    0.0088  -10.4408 H        12        0    0.0000
     77 H          41.7698    1.7846   -8.8318 H        12        0    0.0000
     78 H          40.1642    2.5058   -8.8344 H        12        0    0.0000
     79 C          40.2672    0.5909   -7.7894 C.3      13        0    0.0000
     80 C          40.5338    1.1870   -6.4028 C.3      13        0    0.0000
     81 H          39.1999    0.3633   -7.9021 H        13        0    0.0000
     82 H          40.8052   -0.3587   -7.9004 H        13        0    0.0000
     83 H          41.6011    1.4144   -6.2900 H        13        0    0.0000
     84 H          39.9960    2.1367   -6.2919 H        13        0    0.0000
     85 C          40.0980    0.2216   -5.2472 C.3      14        0    0.0000
     86 C          40.3678    0.8163   -3.8606 C.3      14        0    0.0000
     87 H          39.0302   -0.0039   -5.3586 H        14        0    0.0000
     88 H          40.6341   -0.7290   -5.3595 H        14        0    0.0000
     89 H          41.4367    1.0353   -3.7467 H        14        0    0.0000
     90 H          39.8373    1.7703   -3.7508 H        14        0    0.0000
     91 C          39.9230   -0.1451   -2.7050 C.3      15        0    0.0000
     92 C          40.1960    0.4482   -1.3185 C.3      15        0    0.0000
     93 H          38.8535   -0.3620   -2.8175 H        15        0    0.0000
     94 H          40.4515   -1.1000   -2.8163 H        15        0    0.0000
     95 H          41.2649    0.6689   -1.2076 H        15        0    0.0000
     96 H          39.6642    1.4010   -1.2057 H        15        0    0.0000
     97 C          39.7565   -0.5157   -0.1629 C.3      16        0    0.0000
     98 C          40.2235   -0.0250    1.2119 C.3      16        0    0.0000
     99 H          38.6636   -0.6098   -0.1774 H        16        0    0.0000
    100 H          40.1616   -1.5154   -0.3630 H        16        0    0.0000
    101 H          41.1899    0.4863    1.1206 H        16        0    0.0000
    102 H          39.5140    0.7113    1.6095 H        16        0    0.0000
    103 C          40.3672   -1.1965    2.2436 C.3      17        0    0.0000
    104 C          40.8126   -0.7030    3.6246 C.3      17        0    0.0000
    105 H          39.4053   -1.7180    2.3227 H        17        0    0.0000
    106 H          41.0891   -1.9246    1.8535 H        17        0    0.0000
    107 H          40.7573   -1.5219    4.3525 H        17        0    0.0000
    108 H          41.8614   -0.3831    3.5895 H        17        0    0.0000
    109 C          39.9371    0.4909    4.1397 C.3      18        0    0.0000
    110 C          40.3377    0.9391    5.5495 C.3      18        0    0.0000
    111 H          40.0327    1.3283    3.4374 H        18        0    0.0000
    112 H          38.8828    0.1877    4.1267 H        18        0    0.0000
    113 H          40.5457    2.0162    5.5570 H        18        0    0.0000
    114 H          39.5071    0.7738    6.2470 H        18        0    0.0000
    115 C          41.6012    0.1768    6.0787 C.3      19        0    0.0000
    116 C          41.8305    0.4027    7.5772 C.3      19        0    0.0000
    117 H          41.4796   -0.8941    5.8739 H        19        0    0.0000
    118 H          42.4784    0.5087    5.5097 H        19        0    0.0000
    119 H          42.5172    1.2444    7.7300 H        19        0    0.0000
    120 H          40.8863    0.6737    8.0656 H        19        0    0.0000
    121 C          42.4200   -0.8654    8.2857 C.3      20        0    0.0000
    122 C          42.6701   -0.6324    9.7797 C.3      20        0    0.0000
    123 H          41.7255   -1.7031    8.1467 H        20        0    0.0000
    124 H          43.3560   -1.1460    7.7869 H        20        0    0.0000
    125 H          41.7149   -0.5708   10.3159 H        20        0    0.0000
    126 H          43.2167   -1.4824   10.2067 H        20        0    0.0000
    127 C          43.4857    0.6791   10.0482 C.3      21        0    0.0000
    128 C          43.6740    0.9500   11.5449 C.3      21        0    0.0000
    129 H          44.4622    0.5954    9.5553 H        21        0    0.0000
    130 H          42.9657    1.5218    9.5759 H        21        0    0.0000
    131 H          44.7384    1.0892   11.7710 H        21        0    0.0000
    132 H          43.1679    1.8821   11.8251 H        21        0    0.0000
    133 C          43.1166   -0.2146   12.4341 C.3      22        0    0.0000
    134 C          43.4594   -0.0288   13.9164 C.3      22        0    0.0000
    135 H          42.0288   -0.2696   12.3036 H        22        0    0.0000
    136 H          43.5261   -1.1649   12.0696 H        22        0    0.0000
    137 H          44.3088    0.6572   14.0229 H        22        0    0.0000
    138 H          42.6144    0.4320   14.4429 H        22        0    0.0000
    139 C          43.8137   -1.3847   14.6188 C.3      23        0    0.0000
    140 C          44.1702   -1.1970   16.0975 C.3      23        0    0.0000
    141 H          42.9602   -2.0670   14.5212 H        23        0    0.0000
    142 H          44.6519   -1.8505   14.0859 H        23        0    0.0000
    143 H          44.2368   -2.1725   16.5951 H        23        0    0.0000
    144 H          45.1577   -0.7282   16.1898 H        23        0    0.0000
    145 C          43.1190   -0.3143   16.8547 C.3      24        0    0.0000
    146 C          43.6317    0.1565   18.2202 C.3      24        0    0.0000
    147 H          42.8673    0.5508   16.2287 H        24        0    0.0000
    148 H          42.1952   -0.8929   16.9788 H        24        0    0.0000
    149 H          43.9621    1.2008   18.1583 H        24        0    0.0000
    150 H          42.8201    0.1260   18.9576 H        24        0    0.0000
    151 C          44.8220   -0.7199   18.7423 C.3      25        0    0.0000
    152 C          45.2564   -0.3255   20.1581 C.3      25        0    0.0000
    153 H          44.5203   -1.7745   18.7214 H        25        0    0.0000
    154 H          45.6658   -0.6199   18.0483 H        25        0    0.0000
    155 H          46.2680   -0.6993   20.3591 H        25        0    0.0000
    156 H          45.3007    0.7670   20.2473 H        25        0    0.0000
    157 C          44.2846   -0.8829   21.2547 C.3      26        0    0.0000
    158 C          44.7655   -0.5624   22.6742 C.3      26        0    0.0000
    159 H          43.2862   -0.4587   21.0910 H        26        0    0.0000
    160 H          44.1908   -1.9683   21.1253 H        26        0    0.0000
    161 H          44.6870    0.5153   22.8636 H        26        0    0.0000
    162 H          44.1219   -1.0594   23.4106 H        26        0    0.0000
    163 C          46.2482   -1.0110   22.9146 C.3      27        0    0.0000
    164 C          46.7735   -0.5701   24.2852 C.3      27        0    0.0000
    165 H          46.3067   -2.1027   22.8227 H        27        0    0.0000
    166 H          46.8774   -0.5937   22.1186 H        27        0    0.0000
    167 H          47.6690   -1.1467   24.5482 H        27        0    0.0000
    168 H          47.0763    0.4838   24.2508 H        27        0    0.0000
    169 C          45.7049   -0.7521   25.4177 C.3      28        0    0.0000
    170 C          46.2198   -0.2831   26.7830 C.3      28        0    0.0000
    171 H          44.8013   -0.1933   25.1442 H        28        0    0.0000
    172 H          45.4183   -1.8099   25.4668 H        28        0    0.0000
    173 H          46.6367    0.7283   26.7006 H        28        0    0.0000
    174 H          45.3899   -0.2245   27.4981 H        28        0    0.0000
    175 C          47.3199   -1.2375   27.3628 C.3      29        0    0.0000
    176 C          47.7494   -0.8365   28.7783 C.3      29        0    0.0000
    177 H          46.9328   -2.2640   27.3638 H        29        0    0.0000
    178 H          48.1864   -1.2283   26.6900 H        29        0    0.0000
    179 H          48.4500   -1.5775   29.1830 H        29        0    0.0000
    180 H          48.2841    0.1211   28.7521 H        29        0    0.0000
    181 C          46.5301   -0.7078   29.7551 C.3      30        0    0.0000
    182 C          46.9511   -0.2335   31.1504 C.3      30        0    0.0000
    183 H          45.8035   -0.0083   29.3234 H        30        0    0.0000
    184 H          46.0280   -1.6808   29.8241 H        30        0    0.0000
    185 H          47.1668    0.8420   31.1330 H        30        0    0.0000
    186 H          46.1281   -0.3783   31.8612 H        30        0    0.0000
    187 C          48.2156   -0.9939   31.6798 C.3      31        0    0.0000
    188 C          48.6367   -0.5197   33.0751 C.3      31        0    0.0000
    189 H          48.0000   -2.0694   31.6973 H        31        0    0.0000
    190 H          49.0387   -0.8491   30.9691 H        31        0    0.0000
    191 H          49.4591   -1.1407   33.4513 H        31        0    0.0000
    192 H          49.0161    0.5085   33.0244 H        31        0    0.0000
    193 C          47.4537   -0.5716   34.1024 C.3      32        0    0.0000
    194 C          47.9042   -0.2232   35.5253 C.3      32        0    0.0000
    195 H          46.6704    0.1234   33.7751 H        32        0    0.0000
    196 H          47.0122   -1.5757   34.0828 H        32        0    0.0000
    197 H          47.2339    0.5295   35.9584 H        32        0    0.0000
    198 H          47.8394   -1.1099   36.1680 H        32        0    0.0000
    199 C          49.3726    0.3244   35.5662 C.3      33        0    0.0000
    200 C          49.8874    0.4996   36.9991 C.3      33        0    0.0000
    201 H          50.0228   -0.3659   35.0146 H        33        0    0.0000
    202 H          49.4074    1.2831   35.0341 H        33        0    0.0000
    203 H          50.9348    0.8257   36.9853 H        33        0    0.0000
    204 H          49.3190    1.2871   37.5094 H        33        0    0.0000
    205 C          49.7808   -0.8226   37.8346 C.3      34        0    0.0000
    206 C          50.1205   -0.6044   39.3131 C.3      34        0    0.0000
    207 H          48.7635   -1.2213   37.7372 H        34        0    0.0000
    208 H          50.4554   -1.5707   37.4001 H        34        0    0.0000
    209 H          49.9813   -1.5376   39.8727 H        34        0    0.0000
    210 H          51.1768   -0.3278   39.4195 H        34        0    0.0000
    211 C          49.2372    0.5135   39.9669 C.3      35        0    0.0000
    212 C          49.5767    0.7315   41.4455 C.3      35        0    0.0000
    213 H          49.3766    1.4468   39.4074 H        35        0    0.0000
    214 H          48.1809    0.2371   39.8603 H        35        0    0.0000
    215 H          49.8829    1.7717   41.6118 H        35        0    0.0000
    216 H          48.6870    0.5621   42.0647 H        35        0    0.0000
    217 C          50.7231   -0.2175   41.9380 C.3      36        0    0.0000
    218 C          50.9770   -0.0888   43.4440 C.3      36        0    0.0000
    219 H          50.4573   -1.2522   41.6885 H        36        0    0.0000
    220 H          51.6390    0.0156   41.3809 H        36        0    0.0000
    221 H          51.5373    0.8308   43.6538 H        36        0    0.0000
    222 H          50.0236   -0.0061   43.9805 H        36        0    0.0000
    223 C          51.7758   -1.3093   44.0183 C.3      37        0    0.0000
    224 C          52.0400   -1.1749   45.5220 C.3      37        0    0.0000
    225 H          51.2113   -2.2280   43.8162 H        37        0    0.0000
    226 H          52.7253   -1.3972   43.4759 H        37        0    0.0000
    227 H          51.6183   -2.0352   46.0564 H        37        0    0.0000
    228 H          53.1197   -1.1817   45.7163 H        37        0    0.0000
    229 C          51.4277    0.1396   46.1176 C.3      38        0    0.0000
    230 C          51.7229    0.2918   47.6139 C.3      38        0    0.0000
    231 H          51.8293    0.9985   45.5657 H        38        0    0.0000
    232 H          50.3441    0.1340   45.9466 H        38        0    0.0000
    233 H          52.7745    0.5657   47.7639 H        38        0    0.0000
    234 H          51.1218    1.1073   48.0348 H        38        0    0.0000
    235 C          51.4236   -1.0220   48.4151 C.3      39        0    0.0000
    236 C          51.9355   -0.9516   49.8581 C.3      39        0    0.0000
    237 H          50.3414   -1.2016   48.4082 H        39        0    0.0000
    238 H          51.8868   -1.8681   47.8925 H        39        0    0.0000
    239 H          51.1811   -1.3549   50.5449 H        39        0    0.0000
    240 H          52.8301   -1.5765   49.9707 H        39        0    0.0000
    241 C          52.2841    0.5133   50.2940 C.3      40        0    0.0000
    242 C          52.8906    0.5720   51.7004 C.3      40        0    0.0000
    243 H          52.9826    0.9424   49.5649 H        40        0    0.0000
    244 H          51.3720    1.1213   50.2520 H        40        0    0.0000
    245 H          53.9429    0.2632   51.6694 H        40        0    0.0000
    246 H          52.8758    1.6035   52.0736 H        40        0    0.0000
    247 C          52.1249   -0.3440   52.7163 C.3      41        0    0.0000
    248 C          52.8071   -0.3870   54.0880 C.3      41        0    0.0000
    249 H          51.0966    0.0243   52.8190 H        41        0    0.0000
    250 H          52.0567   -1.3560   52.2981 H        41        0    0.0000
    251 H          52.1104   -0.7722   54.8428 H        41        0    0.0000
    252 H          53.6585   -1.0785   54.0632 H        41        0    0.0000
    253 C          53.3155    1.0243   54.5432 C.3      42        0    0.0000
    254 C          54.0133    0.9782   55.9070 C.3      42        0    0.0000
    255 H          54.0024    1.4151   53.7823 H        42        0    0.0000
    256 H          52.4620    1.7125   54.5804 H        42        0    0.0000
    257 H          54.9964    0.5010   55.8107 H        42        0    0.0000
    258 H          54.1922    1.9970   56.2727 H        42        0    0.0000
    259 C          53.1753    0.1972   56.9771 C.3      43        0    0.0000
    260 C          53.9679   -0.0557   58.2643 C.3      43        0    0.0000
    261 H          52.2666    0.7695   57.2012 H        43        0    0.0000
    262 H          52.8483   -0.7560   56.5434 H        43        0    0.0000
    263 H          53.4118   -0.7362   58.9209 H        43        0    0.0000
    264 H          54.9184   -0.5508   58.0297 H        43        0    0.0000
    265 C          54.2680    1.2690   59.0471 C.3      44        0    0.0000
    266 C          54.9536    1.0060   60.3924 C.3      44        0    0.0000
    267 H          54.8993    1.9134   58.4228 H        44        0    0.0000
    268 H          53.3255    1.8081   59.2042 H        44        0    0.0000
    269 H          55.9654    0.6150   60.2289 H        44        0    0.0000
    270 H          55.0649    1.9455   60.9478 H        44        0    0.0000
    271 C          54.1551   -0.0124   61.2771 C.3      45        0    0.0000
    272 C          54.8754   -0.3286   62.5925 C.3      45        0    0.0000
    273 H          53.1604    0.4021   61.4831 H        45        0    0.0000
    274 H          53.9995   -0.9339   60.7025 H        45        0    0.0000
    275 H          54.1970   -0.8541   63.2760 H        45        0    0.0000
    276 H          55.7199   -1.0036   62.4060 H        45        0    0.0000
    277 C          55.4083    0.9629   63.3034 C.3      46        0    0.0000
    278 C          56.1040    0.6493   64.6325 C.3      46        0    0.0000
    279 H          56.1027    1.4776   62.6276 H        46        0    0.0000
    280 H          54.5671    1.6468   63.4713 H        46        0    0.0000
    281 H          57.0624    0.1488   64.4466 H        46        0    0.0000
    282 H          56.3331    1.5801   65.1660 H        46        0    0.0000
    283 C          55.2293   -0.2627   65.5602 C.3      47        0    0.0000
    284 C          55.8683   -0.4731   66.9374 C.3      47        0    0.0000
    285 H          54.2378    0.1935   65.6713 H        47        0    0.0000
    286 H          55.0776   -1.2294   65.0643 H        47        0    0.0000
    287 H          55.2665    0.0204   67.7106 H        47        0    0.0000
    288 H          55.8846   -1.5416   67.1852 H        47        0    0.0000
    289 C          57.3321    0.0837   67.0044 C.3      48        0    0.0000
    290 C          57.9051    0.0416   68.4254 C.3      48        0    0.0000
    291 H          57.9648   -0.5023   66.3263 H        48        0    0.0000
    292 H          57.3362    1.1140   66.6276 H        48        0    0.0000
    293 H          58.0243   -0.9988   68.7522 H        48        0    0.0000
    294 H          58.9046    0.4935   68.4415 H        48        0    0.0000
    295 C          56.9939    0.7937   69.4558 C.3      49        0    0.0000
    296 C          57.4830    0.6209   70.8980 C.3      49        0    0.0000
    297 H          56.9669    1.8584   69.1928 H        49        0    0.0000
    298 H          55.9673    0.4191   69.3593 H        49        0    0.0000
    299 H          58.4491    1.1236   71.0304 H        49        0    0.0000
    300 H          56.7814    1.0987   71.5929 H        49        0    0.0000
    301 C          57.6397   -0.8874   71.2956 C.3      50        0    0.0000
    302 C          58.1439   -1.0600   72.7326 C.3      50        0    0.0000
    303 H          56.6708   -1.3875   71.1742 H        50        0    0.0000
    304 H          58.3324   -1.3680   70.5936 H        50        0    0.0000
    305 H          58.0700   -2.1124   73.0333 H        50        0    0.0000
    306 H          59.2050   -0.7885   72.7941 H        50        0    0.0000
    307 C          57.3384   -0.1850   73.7539 C.3      51        0    0.0000
    308 C          58.0399   -0.0849   75.1129 C.3      51        0    0.0000
    309 H          57.1983    0.8164   73.3283 H        51        0    0.0000
    310 H          56.3378   -0.6174   73.8780 H        51        0    0.0000
    311 H          57.4500    0.5392   75.7957 H        51        0    0.0000
    312 H          58.1094   -1.0778   75.5744 H        51        0    0.0000
    313 C          59.4815    0.5193   74.9943 C.3      52        0    0.0000
    314 C          60.1980    0.5826   76.3478 C.3      52        0    0.0000
    315 H          60.0625   -0.0880   74.2892 H        52        0    0.0000
    316 H          59.4092    1.5239   74.5596 H        52        0    0.0000
    317 H          61.0890   -0.0573   76.3320 H        52        0    0.0000
    318 H          60.5473    1.6044   76.5410 H        52        0    0.0000
    319 C          59.2734    0.1323   77.5310 C.3      53        0    0.0000
    320 C          60.0018    0.1578   78.8793 C.3      53        0    0.0000
    321 H          58.3964    0.7906   77.5647 H        53        0    0.0000
    322 H          58.9009   -0.8785   77.3237 H        53        0    0.0000
    323 H          60.8385   -0.5517   78.8683 H        53        0    0.0000
    324 H          60.4332    1.1510   79.0551 H        53        0    0.0000
    325 C          59.0521   -0.1993   80.0743 C.3      54        0    0.0000
    326 C          59.7645   -0.1116   81.4286 C.3      54        0    0.0000
    327 H          58.1913    0.4806   80.0573 H        54        0    0.0000
    328 H          58.6572   -1.2114   79.9219 H        54        0    0.0000
    329 H          60.4372   -0.9687   81.5559 H        54        0    0.0000
    330 H          60.3904    0.7886   81.4667 H        54        0    0.0000
    331 C          58.7567   -0.0776   82.6289 C.3      55        0    0.0000
    332 C          59.4696   -0.0199   83.9844 C.3      55        0    0.0000
    333 H          58.0980    0.7920   82.5130 H        55        0    0.0000
    334 H          58.1163   -0.9668   82.5782 H        55        0    0.0000
    335 H          60.2193   -0.8182   84.0494 H        55        0    0.0000
    336 H          60.0105    0.9293   84.0848 H        55        0    0.0000
    337 C          58.4733   -0.1633   85.1862 C.3      56        0    0.0000
    338 C          59.1849   -0.0950   86.5419 C.3      56        0    0.0000
    339 H          57.7190    0.6304   85.1168 H        56        0    0.0000
    340 H          57.9379   -1.1159   85.0899 H        56        0    0.0000
    341 H          59.8685   -0.9460   86.6512 H        56        0    0.0000
    342 H          59.7993    0.8120   86.5990 H        56        0    0.0000
    343 C          58.1771   -0.0990   87.7427 C.3      57        0    0.0000
    344 C          58.8892   -0.0456   89.0988 C.3      57        0    0.0000
    345 H          57.5003    0.7581   87.6392 H        57        0    0.0000
    346 H          57.5554   -1.0007   87.6795 H        57        0    0.0000
    347 H          59.3279    0.9478   89.2544 H        57        0    0.0000
    348 H          58.1667   -0.2014   89.9095 H        57        0    0.0000
    349 C          60.0222   -1.1226   89.2178 C.3      58        0    0.0000
    350 C          60.7183   -1.0849   90.5827 C.3      58        0    0.0000
    351 H          59.5867   -2.1145   89.0449 H        58        0    0.0000
    352 H          60.7539   -0.9559   88.4176 H        58        0    0.0000
    353 H          60.5987   -2.0488   91.0927 H        58        0    0.0000
    354 H          61.7963   -0.9298   90.4510 H        58        0    0.0000
    355 C          60.1538    0.0489   91.5064 C.3      59        0    0.0000
    356 C          60.5194   -0.1659   92.9793 C.3      59        0    0.0000
    357 H          60.5427    1.0142   91.1593 H        59        0    0.0000
    358 H          59.0635    0.0887   91.3914 H        59        0    0.0000
    359 H          60.7285   -1.2269   93.1641 H        59        0    0.0000
    360 H          61.4374    0.3832   93.2230 H        59        0    0.0000
    361 C          59.3791    0.3006   93.9486 C.3      60        0    0.0000
    362 C          59.7542    0.1077   95.4221 C.3      60        0    0.0000
    363 H          59.1580    1.3570   93.7519 H        60        0    0.0000
    364 H          58.4658   -0.2610   93.7163 H        60        0    0.0000
    365 H          59.8488   -0.9614   95.6493 H        60        0    0.0000
    366 H          60.7330    0.5604   95.6234 H        60        0    0.0000
    367 C          58.6966    0.7388   96.3919 C.3      61        0    0.0000
    368 C          59.0683    0.5402   97.8654 C.3      61        0    0.0000
    369 H          58.6055    1.8089   96.1678 H        61        0    0.0000
    370 H          57.7168    0.2896   96.1873 H        61        0    0.0000
    371 H          59.9237    1.1756   98.1265 H        61        0    0.0000
    372 H          58.2362    0.8523   98.5087 H        61        0    0.0000
    373 C          59.4278   -0.9503   98.1918 C.3      62        0    0.0000
    374 C          59.9356   -1.1244   99.6274 C.3      62        0    0.0000
    375 H          58.5387   -1.5722   98.0293 H        62        0    0.0000
    376 H          60.1877   -1.2949   97.4796 H        62        0    0.0000
    377 H          59.4123   -1.9573  100.1131 H        62        0    0.0000
    378 H          61.0017   -1.3833   99.6205 H        62        0    0.0000
    379 C          59.7355    0.1696  100.4894 C.3      63        0    0.0000
    380 C          60.0129   -0.0747  101.9768 C.3      63        0    0.0000
    381 H          60.3989    0.9553  100.1071 H        63        0    0.0000
    382 H          58.7085    0.5303  100.3525 H        63        0    0.0000
    383 H          59.7982   -1.1196  102.2328 H        63        0    0.0000
    384 H          61.0755    0.0908  102.1934 H        63        0    0.0000
    385 C          59.1574    0.8581  102.9017 C.3      64        0    0.0000
    386 C          59.4264    0.6060  104.3893 C.3      64        0    0.0000
    387 H          59.3782    1.9032  102.6513 H        64        0    0.0000
    388 H          58.0950    0.6987  102.6792 H        64        0    0.0000
    389 H          60.4207    0.9817  104.6608 H        64        0    0.0000
    390 H          58.7029    1.1587  105.0014 H        64        0    0.0000
    391 C          59.3428   -0.9152  104.7587 C.3      65        0    0.0000
    392 C          59.6849   -1.1754  106.2299 C.3      65        0    0.0000
    393 H          58.3312   -1.2777  104.5379 H        65        0    0.0000
    394 H          60.0268   -1.4750  104.1088 H        65        0    0.0000
    395 H          58.8806   -1.7487  106.7073 H        65        0    0.0000
    396 H          60.5932   -1.7863  106.3025 H        65        0    0.0000
    397 C          59.9038    0.1531  107.0328 C.3      66        0    0.0000
    398 C          60.0007   -0.0902  108.5429 C.3      66        0    0.0000
    399 H          60.8185    0.6386  106.6705 H        66        0    0.0000
    400 H          59.0756    0.8387  106.8147 H        66        0    0.0000
    401 H          59.3347   -0.9115  108.8351 H        66        0    0.0000
    402 H          61.0188   -0.4002  108.8094 H        66        0    0.0000
    403 C          59.6265    1.1843  109.3753 C.3      67        0    0.0000
    404 C          59.7154    0.9387  110.8855 C.3      67        0    0.0000
    405 H          60.2964    2.0040  109.0874 H        67        0    0.0000
    406 H          58.6107    1.4979  109.1044 H        67        0    0.0000
    407 H          60.7654    0.8519  111.1913 H        67        0    0.0000
    408 H          59.2981    1.7941  111.4310 H        67        0    0.0000
    409 C          58.9531   -0.3596  111.3221 C.3      68        0    0.0000
    410 C          59.2112   -0.7191  112.7895 C.3      68        0    0.0000
    411 H          57.8790   -0.2123  111.1543 H        68        0    0.0000
    412 H          59.2629   -1.1872  110.6720 H        68        0    0.0000
    413 H          58.2677   -0.9806  113.2843 H        68        0    0.0000
    414 H          59.8558   -1.6046  112.8521 H        68        0    0.0000
    415 C          59.8872    0.4547  113.5786 C.3      69        0    0.0000
    416 C          60.0335    0.1423  115.0719 C.3      69        0    0.0000
    417 H          60.8716    0.6561  113.1383 H        69        0    0.0000
    418 H          59.2887    1.3639  113.4414 H        69        0    0.0000
    419 H          59.9795   -0.9410  115.2367 H        69        0    0.0000
    420 H          61.0187    0.4665  115.4293 H        69        0    0.0000
    421 C          58.9276    0.8405  115.9361 C.3      70        0    0.0000
    422 C          59.1234    0.5975  117.4367 C.3      70        0    0.0000
    423 H          58.9406    1.9169  115.7246 H        70        0    0.0000
    424 H          57.9449    0.4692  115.6200 H        70        0    0.0000
    425 H          59.3391    1.5449  117.9462 H        70        0    0.0000
    426 H          58.1986    0.2058  117.8781 H        70        0    0.0000
    427 C          60.2886   -0.4097  117.7283 C.3      71        0    0.0000
    428 C          60.5884   -0.5332  119.2263 C.3      71        0    0.0000
    429 H          60.0198   -1.3903  117.3164 H        71        0    0.0000
    430 H          61.1858   -0.0777  117.1913 H        71        0    0.0000
    431 H          60.6556   -1.5907  119.5105 H        71        0    0.0000
    432 H          61.5629   -0.0835  119.4532 H        71        0    0.0000
    433 C          59.4943    0.1590  120.1102 C.3      72        0    0.0000
    434 C          59.8734    0.1776  121.5951 C.3      72        0    0.0000
    435 H          59.3429    1.1833  119.7477 H        72        0    0.0000
    436 H          58.5422   -0.3682  119.9716 H        72        0    0.0000
    437 H          60.1002    1.2030  121.9125 H        72        0    0.0000
    438 H          59.0258   -0.1605  122.2040 H        72        0    0.0000
    439 C          61.1120   -0.7325  121.9035 C.3      73        0    0.0000
    440 C          61.5889   -0.5926  123.3533 C.3      73        0    0.0000
    441 H          60.8450   -1.7758  121.6943 H        73        0    0.0000
    442 H          61.9237   -0.4706  121.2135 H        73        0    0.0000
    443 H          61.8559    0.4507  123.5625 H        73        0    0.0000
    444 H          60.7772   -0.8544  124.0433 H        73        0    0.0000
    445 H          62.4501   -1.2254  123.5677 H        73        0    0.0000
    446 H          39.2798    1.2287  -40.4349 H         0        0    0.0000
@<TRIPOS>BOND
     1     1     2      1
     2     1     3      1
     3     1     4      1
     4     1   446      H
     5     2     5      1
     6     2     6      1
     7     2     7      1
     8     7     8      1
     9     7     9      1
    10     7    10      1
    11     8    11      1
    12     8    12      1
    13     8    13      1
    14    13    14      1
    15    13    15      1
    16    13    16      1
    17    14    17      1
    18    14    18      1
    19    14    19      1
    20    19    20      1
    21    19    21      1
    22    19    22      1
    23    20    23      1
    24    20    24      1
    25    20    25      1
    26    25    26      1
    27    25    27      1
    28    25    28      1
    29    26    29      1
    30    26    30      1
    31    26    31      1
    32    31    32      1
    33    31    33      1
    34    31    34      1
    35    32    35      1
    36    32    36      1
    37    32    37      1
    38    37    38      1
    39    37    39      1
    40    37    40      1
    41    38    41      1
    42    38    42      1
    43    38    43      1
    44    43    44      1
    45    43    45      1
    46    43    46      1
    47    44    47      1
    48    44    48      1
    49    44    49      1
    50    49    50      1
    51    49    51      1
    52    49    52      1
    53    50    53      1
    54    50    54      1
    55    50    55      1
    56    55    56      1
    57    55    57      1
    58    55    58      1
    59    56    59      1
    60    56    60      1
    61    56    61      1
    62    61    62      1
    63    61    63      1
    64    61    64      1
    65    62    65      1
    66    62    66      1
    67    62    67      1
    68    67    68      1
    69    67    69      1
    70    67    70      1
    71    68    71      1
    72    68    72      1
    73    68    73      1
    74    73    74      1
    75    73    75      1
    76    73    76      1
    77    74    77      1
    78    74    78      1
    79    74    79      1
    80    79    80      1
    81    79    81      1
    82    79    82      1
    83    80    83      1
    84    80    84      1
    85    80    85      1
    86    85    86      1
    87    85    87      1
    88    85    88      1
    89    86    89      1
    90    86    90      1
    91    86    91      1
    92    91    92      1
    93    91    93      1
    94    91    94      1
    95    92    95      1
    96    92    96      1
    97    92    97      1
    98    97    98      1
    99    97    99      1
   100    97   100      1
   101    98   101      1
   102    98   102      1
   103    98   103      1
   104   103   104      1
   105   103   105      1
   106   103   106      1
   107   104   107      1
   108   104   108      1
   109   104   109      1
   110   109   110      1
   111   109   111      1
   112   109   112      1
   113   110   113      1
   114   110   114      1
   115   110   115      1
   116   115   116      1
   117   115   117      1
   118   115   118      1
   119   116   119      1
   120   116   120      1
   121   116   121      1
   122   121   122      1
   123   121   123      1
   124   121   124      1
   125   122   125      1
   126   122   126      1
   127   122   127      1
   128   127   128      1
   129   127   129      1
   130   127   130      1
   131   128   131      1
   132   128   132      1
   133   128   133      1
   134   133   134      1
   135   133   135      1
   136   133   136      1
   137   134   137      1
   138   134   138      1
   139   134   139      1
   140   139   140      1
   141   139   141      1
   142   139   142      1
   143   140   143      1
   144   140   144      1
   145   140   145      1
   146   145   146      1
   147   145   147      1
   148   145   148      1
   149   146   149      1
   150   146   150      1
   151   146   151      1
   152   151   152      1
   153   151   153      1
   154   151   154      1
   155   152   155      1
   156   152   156      1
   157   152   157      1
   158   157   158      1
   159   157   159      1
   160   157   160      1
   161   158   161      1
   162   158   162      1
   163   158   163      1
   164   163   164      1
   165   163   165      1
   166   163   166      1
   167   164   167      1
   168   164   168      1
   169   164   169      1
   170   169   170      1
   171   169   171      1
   172   169   172      1
   173   170   173      1
   174   170   174      1
   175   170   175      1
   176   175   176      1
   177   175   177      1
   178   175   178      1
   179   176   179      1
   180   176   180      1
   181   176   181      1
   182   181   182      1
   183   181   183      1
   184   181   184      1
   185   182   185      1
   186   182   186      1
   187   182   187      1
   188   187   188      1
   189   187   189      1
   190   187   190      1
   191   188   191      1
   192   188   192      1
   193   188   193      1
   194   193   194      1
   195   193   195      1
   196   193   196      1
   197   194   197      1
   198   194   198      1
   199   194   199      1
   200   199   200      1
   201   199   201      1
   202   199   202      1
   203   200   203      1
   204   200   204      1
   205   200   205      1
   206   205   206      1
   207   205   207      1
   208   205   208      1
   209   206   209      1
   210   206   210      1
   211   206   211      1
   212   211   212      1
   213   211   213      1
   214   211   214      1
   215   212   215      1
   216   212   216      1
   217   212   217      1
   218   217   218      1
   219   217   219      1
   220   217   220      1
   221   218   221      1
   222   218   222      1
   223   218   223      1
   224   223   224      1
   225   223   225      1
   226   223   226      1
   227   224   227      1
   228   224   228      1
   229   224   229      1
   230   229   230      1
   231   229   231      1
   232   229   232      1
   233   230   233      1
   234   230   234      1
   235   230   235      1
   236   235   236      1
   237   235   237      1
   238   235   238      1
   239   236   239      1
   240   236   240      1
   241   236   241      1
   242   241   242      1
   243   241   243      1
   244   241   244      1
   245   242   245      1
   246   242   246      1
   247   242   247      1
   248   247   248      1
   249   247   249      1
   250   247   250      1
   251   248   251      1
   252   248   252      1
   253   248   253      1
   254   253   254      1
   255   253   255      1
   256   253   256      1
   257   254   257      1
   258   254   258      1
   259   254   259      1
   260   259   260      1
   261   259   261      1
   262   259   262      1
   263   260   263      1
   264   260   264      1
   265   260   265      1
   266   265   266      1
   267   265   267      1
   268   265   268      1
   269   266   269      1
   270   266   270      1
   271   266   271      1
   272   271   272      1
   273   271   273      1
   274   271   274      1
   275   272   275      1
   276   272   276      1
   277   272   277      1
   278   277   278      1
   279   277   279      1
   280   277   280      1
   281   278   281      1
   282   278   282      1
   283   278   283      1
   284   283   284      1
   285   283   285      1
   286   283   286      1
   287   284   287      1
   288   284   288      1
   289   284   289      1
   290   289   290      1
   291   289   291      1
   292   289   292      1
   293   290   293      1
   294   290   294      1
   295   290   295      1
   296   295   296      1
   297   295   297      1
   298   295   298      1
   299   296   299      1
   300   296   300      1
   301   296   301      1
   302   301   302      1
   303   301   303      1
   304   301   304      1
   305   302   305      1
   306   302   306      1
   307   302   307      1
   308   307   308      1
   309   307   309      1
   310   307   310      1
   311   308   311      1
   312   308   312      1
   313   308   313      1
   314   313   314      1
   315   313   315      1
   316   313   316      1
   317   314   317      1
   318   314   318      1
   319   314   319      1
   320   319   320      1
   321   319   321      1
   322   319   322      1
   323   320   323      1
   324   320   324      1
   325   320   325      1
   326   325   326      1
   327   325   327      1
   328   325   328      1
   329   326   329      1
   330   326   330      1
   331   326   331      1
   332   331   332      1
   333   331   333      1
   334   331   334      1
   335   332   335      1
   336   332   336      1
   337   332   337      1
   338   337   338      1
   339   337   339      1
   340   337   340      1
   341   338   341      1
   342   338   342      1
   343   338   343      1
   344   343   344      1
   345   343   345      1
   346   343   346      1
   347   344   347      1
   348   344   348      1
   349   344   349      1
   350   349   350      1
   351   349   351      1
   352   349   352      1
   353   350   353      1
   354   350   354      1
   355   350   355      1
   356   355   356      1
   357   355   357      1
   358   355   358      1
   359   356   359      1
   360   356   360      1
   361   356   361      1
   362   361   362      1
   363   361   363      1
   364   361   364      1
   365   362   365      1
   366   362   366      1
   367   362   367      1
   368   367   368      1
   369   367   369      1
   370   367   370      1
   371   368   371      1
   372   368   372      1
   373   368   373      1
   374   373   374      1
   375   373   375      1
   376   373   376      1
   377   374   377      1
   378   374   378      1
   379   374   379      1
   380   379   380      1
   381   379   381      1
   382   379   382      1
   383   380   383      1
   384   380   384      1
   385   380   385      1
   386   385   386      1
   387   385   387      1
   388   385   388      1
   389   386   389      1
   390   386   390      1
   391   386   391      1
   392   391   392      1
   393   391   393      1
   394   391   394      1
   395   392   395      1
   396   392   396      1
   397   392   397      1
   398   397   398      1
   399   397   399      1
   400   397   400      1
   401   398   401      1
   402   398   402      1
   403   398   403      1
   404   403   404      1
   405   403   405      1
   406   403   406      1
   407   404   407      1
   408   404   408      1
   409   404   409      1
   410   409   410      1
   411   409   411      1
   412   409   412      1
   413   410   413      1
   414   410   414      1
   415   410   415      1
   416   415   416      1
   417   415   417      1
   418   415   418      1
   419   416   419      1
   420   416   420      1
   421   416   421      1
   422   421   422      1
   423   421   423      1
   424   421   424      1
   425   422   425      1
   426   422   426      1
   427   422   427      1
   428   427   428      1
   429   427   429      1
   430   427   430      1
   431   428   431      1
   432   428   432      1
   433   428   433      1
   434   433   434      1
   435   433   435      1
   436   433   436      1
   437   434   437      1
   438   434   438      1
   439   434   439      1
   440   439   440      1
   441   439   441      1
   442   439   442      1
   443   440   443      1
   444   440   444      1
   445   440   445      H
