###
### Created by PolyChef-cpp17 on Thu Feb 27 19:40:28 2025
###

@<TRIPOS>MOLECULE
NO_INFO
338 337 1 0 0
SMALL
USER_CHARGES


@<TRIPOS>ATOM
      1 C          69.2798   18.5487  -39.3449 C.3       0        0    0.0000
      2 C          67.8706   18.3882  -38.7641 C.3       0        0    0.0000
      3 H          69.9271   17.7366  -38.9913 H         0        0    0.0000
      4 H          69.7280   19.4855  -38.9913 H         0        0    0.0000
      5 H          67.3721   19.3640  -38.7112 H         0        0    0.0000
      6 H          67.2611   17.7585  -39.4241 H         0        0    0.0000
      7 C          67.8873   17.7511  -37.3319 C.3       1        0    0.0000
      8 C          69.1651   18.0944  -36.5583 C.3       1        0    0.0000
      9 H          67.0071   18.1014  -36.7787 H         1        0    0.0000
     10 H          67.7866   16.6628  -37.4278 H         1        0    0.0000
     11 H          70.0454   17.9182  -37.1888 H         1        0    0.0000
     12 H          69.1723   19.1601  -36.2979 H         1        0    0.0000
     13 C          69.3083   17.2522  -35.2439 C.3       2        0    0.0000
     14 C          70.2059   17.9391  -34.2088 C.3       2        0    0.0000
     15 H          68.3098   17.0823  -34.8223 H         2        0    0.0000
     16 H          69.7148   16.2656  -35.4986 H         2        0    0.0000
     17 H          71.2605   17.8179  -34.4858 H         2        0    0.0000
     18 H          70.0060   19.0177  -34.1942 H         2        0    0.0000
     19 C          69.9937   17.3664  -32.7650 C.3       3        0    0.0000
     20 C          70.6186   18.2600  -31.6880 C.3       3        0    0.0000
     21 H          68.9175   17.2549  -32.5835 H         3        0    0.0000
     22 H          70.4273   16.3598  -32.7167 H         3        0    0.0000
     23 H          71.7079   18.2945  -31.8133 H         3        0    0.0000
     24 H          70.2562   19.2898  -31.7969 H         3        0    0.0000
     25 C          70.2922   17.7601  -30.2385 C.3       4        0    0.0000
     26 C          70.9016   18.6642  -29.1613 C.3       4        0    0.0000
     27 H          69.2029   17.7127  -30.1176 H         4        0    0.0000
     28 H          70.6666   16.7352  -30.1252 H         4        0    0.0000
     29 H          71.9913   18.7092  -29.2802 H         4        0    0.0000
     30 H          70.5296   19.6898  -29.2764 H         4        0    0.0000
     31 C          70.5716   18.1668  -27.7118 C.3       5        0    0.0000
     32 C          71.1664   19.0806  -26.6346 C.3       5        0    0.0000
     33 H          69.4821   18.1097  -27.5970 H         5        0    0.0000
     34 H          70.9549   17.1458  -27.5925 H         5        0    0.0000
     35 H          72.2564   19.1344  -26.7469 H         5        0    0.0000
     36 H          70.7863   20.1025  -26.7565 H         5        0    0.0000
     37 C          70.8315   18.5864  -25.1851 C.3       6        0    0.0000
     38 C          71.4900   19.4559  -24.1083 C.3       6        0    0.0000
     39 H          69.7422   18.5864  -25.0544 H         6        0    0.0000
     40 H          71.1612   17.5453  -25.0815 H         6        0    0.0000
     41 H          72.5785   19.4630  -24.2443 H         6        0    0.0000
     42 H          71.1535   20.4955  -24.2066 H         6        0    0.0000
     43 C          71.1650   18.9545  -22.6591 C.3       7        0    0.0000
     44 C          71.0709   20.1070  -21.6531 C.3       7        0    0.0000
     45 H          70.2207   18.3965  -22.6813 H         7        0    0.0000
     46 H          71.9424   18.2458  -22.3475 H         7        0    0.0000
     47 H          72.0521   20.5828  -21.5333 H         7        0    0.0000
     48 H          70.3897   20.8802  -22.0296 H         7        0    0.0000
     49 C          70.5659   19.6294  -20.2480 C.3       8        0    0.0000
     50 C          71.5140   20.0452  -19.1179 C.3       8        0    0.0000
     51 H          69.5658   20.0444  -20.0718 H         8        0    0.0000
     52 H          70.4557   18.5380  -20.2641 H         8        0    0.0000
     53 H          72.5548   19.9885  -19.4601 H         8        0    0.0000
     54 H          71.3308   21.0901  -18.8385 H         8        0    0.0000
     55 C          71.3511   19.1456  -17.8445 C.3       9        0    0.0000
     56 C          71.0998   19.9716  -16.5781 C.3       9        0    0.0000
     57 H          70.5213   18.4471  -18.0088 H         9        0    0.0000
     58 H          72.2559   18.5371  -17.7233 H         9        0    0.0000
     59 H          72.0280   20.4608  -16.2577 H         9        0    0.0000
     60 H          70.3784   20.7711  -16.7875 H         9        0    0.0000
     61 C          70.5558   19.0968  -15.3965 C.3      10        0    0.0000
     62 C          70.9863   19.6365  -14.0281 C.3      10        0    0.0000
     63 H          69.4611   19.0598  -15.4588 H        10        0    0.0000
     64 H          70.9136   18.0677  -15.5245 H        10        0    0.0000
     65 H          72.0700   19.8069  -14.0149 H        10        0    0.0000
     66 H          70.5124   20.6080  -13.8408 H        10        0    0.0000
     67 C          70.6142   18.6592  -12.8602 C.3      11        0    0.0000
     68 C          70.8614   19.2812  -11.4814 C.3      11        0    0.0000
     69 H          69.5597   18.3737  -12.9604 H        11        0    0.0000
     70 H          71.2015   17.7390  -12.9685 H        11        0    0.0000
     71 H          71.9234   19.5314  -11.3665 H        11        0    0.0000
     72 H          70.3043   20.2216  -11.3876 H        11        0    0.0000
     73 C          70.4384   18.3247  -10.3137 C.3      12        0    0.0000
     74 C          70.7013   18.9399   -8.9347 C.3      12        0    0.0000
     75 H          69.3734   18.0844  -10.4215 H        12        0    0.0000
     76 H          70.9864   17.3796  -10.4146 H        12        0    0.0000
     77 H          71.7651   19.1864   -8.8294 H        12        0    0.0000
     78 H          70.1480   19.8815   -8.8312 H        12        0    0.0000
     79 C          70.2873   17.9795   -7.7670 C.3      13        0    0.0000
     80 C          70.5629   18.5891   -6.3881 C.3      13        0    0.0000
     81 H          69.2211   17.7409   -7.8665 H        13        0    0.0000
     82 H          70.8331   17.0341   -7.8762 H        13        0    0.0000
     83 H          71.6271   18.8378   -6.2927 H        13        0    0.0000
     84 H          70.0084   19.5289   -6.2746 H        13        0    0.0000
     85 C          70.1632   17.6225   -5.2205 C.3      14        0    0.0000
     86 C          70.5117   18.1992   -3.8439 C.3      14        0    0.0000
     87 H          69.0868   17.4198   -5.2819 H        14        0    0.0000
     88 H          70.6734   16.6622   -5.3661 H        14        0    0.0000
     89 H          71.5853   18.4177   -3.7884 H        14        0    0.0000
     90 H          69.9882   19.1512   -3.6914 H        14        0    0.0000
     91 C          70.1339   17.2223   -2.6775 C.3      15        0    0.0000
     92 C          70.2837   17.8771   -1.2999 C.3      15        0    0.0000
     93 H          69.1010   16.8819   -2.8219 H        15        0    0.0000
     94 H          70.7711   16.3316   -2.7419 H        15        0    0.0000
     95 H          71.3373   17.8733   -0.9941 H        15        0    0.0000
     96 H          69.9733   18.9283   -1.3472 H        15        0    0.0000
     97 C          69.4359   17.1489   -0.2006 C.3      16        0    0.0000
     98 C          68.7695   18.1338    0.7662 C.3      16        0    0.0000
     99 H          68.6744   16.5314   -0.6927 H        16        0    0.0000
    100 H          70.0889   16.4624    0.3525 H        16        0    0.0000
    101 H          69.4018   18.2785    1.6510 H        16        0    0.0000
    102 H          68.6651   19.1164    0.2896 H        16        0    0.0000
    103 C          67.3545   17.6447    1.2310 C.3      17        0    0.0000
    104 C          66.6266   18.6941    2.0783 C.3      17        0    0.0000
    105 H          66.7574   17.3968    0.3447 H        17        0    0.0000
    106 H          67.4716   16.7154    1.8021 H        17        0    0.0000
    107 H          67.2337   18.9583    2.9531 H        17        0    0.0000
    108 H          66.4899   19.6160    1.4996 H        17        0    0.0000
    109 C          65.2246   18.1930    2.5690 C.3      18        0    0.0000
    110 C          64.6321   19.0974    3.6553 C.3      18        0    0.0000
    111 H          64.5456   18.1440    1.7087 H        18        0    0.0000
    112 H          65.3278   17.1685    2.9476 H        18        0    0.0000
    113 H          64.4471   20.1001    3.2504 H        18        0    0.0000
    114 H          63.6610   18.7057    3.9825 H        18        0    0.0000
    115 C          65.5730   19.2221    4.9030 C.3      19        0    0.0000
    116 C          65.0482   20.2340    5.9275 C.3      19        0    0.0000
    117 H          65.6755   18.2340    5.3686 H        19        0    0.0000
    118 H          66.5739   19.5155    4.5631 H        19        0    0.0000
    119 H          63.9614   20.1304    6.0358 H        19        0    0.0000
    120 H          65.4838   20.0312    6.9137 H        19        0    0.0000
    121 C          65.3771   21.7127    5.5241 C.3      20        0    0.0000
    122 C          65.0239   22.7096    6.6334 C.3      20        0    0.0000
    123 H          66.4443   21.7837    5.2804 H        20        0    0.0000
    124 H          64.8274   21.9598    4.6074 H        20        0    0.0000
    125 H          65.3053   23.7255    6.3297 H        20        0    0.0000
    126 H          63.9395   22.7194    6.7991 H        20        0    0.0000
    127 C          65.7388   22.3704    7.9867 C.3      21        0    0.0000
    128 C          65.5223   23.4566    9.0461 C.3      21        0    0.0000
    129 H          65.3631   21.4071    8.3533 H        21        0    0.0000
    130 H          66.8112   22.2387    7.7967 H        21        0    0.0000
    131 H          64.4652   23.4928    9.3371 H        21        0    0.0000
    132 H          66.0907   23.2160    9.9531 H        21        0    0.0000
    133 C          65.9558   24.8754    8.5396 C.3      22        0    0.0000
    134 C          65.6350   25.9777    9.5550 C.3      22        0    0.0000
    135 H          67.0320   24.8614    8.3271 H        22        0    0.0000
    136 H          65.4495   25.0812    7.5884 H        22        0    0.0000
    137 H          66.5237   26.5959    9.7326 H        22        0    0.0000
    138 H          64.8620   26.6450    9.1541 H        22        0    0.0000
    139 C          65.1409   25.3979   10.9251 C.3      23        0    0.0000
    140 C          65.0325   26.4775   12.0075 C.3      23        0    0.0000
    141 H          64.1664   24.9168   10.7747 H        23        0    0.0000
    142 H          65.8343   24.6110   11.2468 H        23        0    0.0000
    143 H          64.0919   26.3627   12.5605 H        23        0    0.0000
    144 H          65.8432   26.3612   12.7374 H        23        0    0.0000
    145 C          65.0941   27.9257   11.4104 C.3      24        0    0.0000
    146 C          65.6338   28.9469   12.4179 C.3      24        0    0.0000
    147 H          65.7259   27.9119   10.5137 H        24        0    0.0000
    148 H          64.0882   28.2161   11.0827 H        24        0    0.0000
    149 H          65.0427   29.8699   12.3711 H        24        0    0.0000
    150 H          65.5312   28.5585   13.4388 H        24        0    0.0000
    151 C          67.1397   29.2975   12.1595 C.3      25        0    0.0000
    152 C          67.5020   30.7023   12.6537 C.3      25        0    0.0000
    153 H          67.7677   28.5494   12.6591 H        25        0    0.0000
    154 H          67.3432   29.2127   11.0848 H        25        0    0.0000
    155 H          66.7680   31.0412   13.3952 H        25        0    0.0000
    156 H          68.4753   30.6837   13.1596 H        25        0    0.0000
    157 C          67.5595   31.7465   11.4859 C.3      26        0    0.0000
    158 C          67.7909   33.1739   11.9938 C.3      26        0    0.0000
    159 H          68.3607   31.4591   10.7937 H        26        0    0.0000
    160 H          66.6211   31.6961   10.9199 H        26        0    0.0000
    161 H          68.2235   33.1491   13.0017 H        26        0    0.0000
    162 H          68.5166   33.6886   11.3520 H        26        0    0.0000
    163 C          66.4669   34.0125   12.0328 C.3      27        0    0.0000
    164 C          66.7305   35.5190   11.9330 C.3      27        0    0.0000
    165 H          65.8188   33.6886   11.2091 H        27        0    0.0000
    166 H          65.9316   33.7851   12.9630 H        27        0    0.0000
    167 H          67.1157   35.8976   12.8879 H        27        0    0.0000
    168 H          67.5041   35.7165   11.1806 H        27        0    0.0000
    169 C          65.4399   36.3241   11.5540 C.3      28        0    0.0000
    170 C          65.7394   37.4872   10.6020 C.3      28        0    0.0000
    171 H          64.7175   35.6382   11.0943 H        28        0    0.0000
    172 H          64.9753   36.7008   12.4737 H        28        0    0.0000
    173 H          66.2600   38.2892   11.1400 H        28        0    0.0000
    174 H          66.4134   37.1550    9.8026 H        28        0    0.0000
    175 C          64.4385   38.0750    9.9542 C.3      29        0    0.0000
    176 C          64.2473   39.5603   10.2803 C.3      29        0    0.0000
    177 H          64.4887   37.9318    8.8677 H        29        0    0.0000
    178 H          63.5753   37.4979   10.3085 H        29        0    0.0000
    179 H          64.7705   39.8114   11.2112 H        29        0    0.0000
    180 H          64.6931   40.1790    9.4916 H        29        0    0.0000
    181 C          62.7352   39.9456   10.4307 C.3      30        0    0.0000
    182 C          62.1644   40.5682    9.1518 C.3      30        0    0.0000
    183 H          62.1661   39.0466   10.6979 H        30        0    0.0000
    184 H          62.6304   40.6455   11.2690 H        30        0    0.0000
    185 H          62.1831   41.6626    9.2254 H        30        0    0.0000
    186 H          62.7896   40.2996    8.2912 H        30        0    0.0000
    187 C          60.6931   40.1057    8.8714 C.3      31        0    0.0000
    188 C          60.3715   40.0685    7.3733 C.3      31        0    0.0000
    189 H          60.5444   39.1125    9.3128 H        31        0    0.0000
    190 H          60.0042   40.7861    9.3872 H        31        0    0.0000
    191 H          59.3099   39.8365    7.2221 H        31        0    0.0000
    192 H          60.5450   41.0554    6.9267 H        31        0    0.0000
    193 C          61.2346   39.0080    6.6065 C.3      32        0    0.0000
    194 C          60.8969   38.9548    5.1125 C.3      32        0    0.0000
    195 H          62.2958   39.2497    6.7439 H        32        0    0.0000
    196 H          61.0738   38.0239    7.0638 H        32        0    0.0000
    197 H          61.6379   38.3451    4.5808 H        32        0    0.0000
    198 H          59.9243   38.4695    4.9637 H        32        0    0.0000
    199 C          60.8550   40.3804    4.4617 C.3      33        0    0.0000
    200 C          60.5635   40.3242    2.9581 C.3      33        0    0.0000
    201 H          60.0898   40.9793    4.9711 H        33        0    0.0000
    202 H          61.8157   40.8790    4.6403 H        33        0    0.0000
    203 H          59.6896   40.9435    2.7209 H        33        0    0.0000
    204 H          61.4077   40.7417    2.3954 H        33        0    0.0000
    205 C          60.2972   38.8622    2.4588 C.3      34        0    0.0000
    206 C          60.2520   38.7699    0.9296 C.3      34        0    0.0000
    207 H          61.0831   38.2056    2.8523 H        34        0    0.0000
    208 H          59.3497   38.5101    2.8851 H        34        0    0.0000
    209 H          59.3665   39.2924    0.5472 H        34        0    0.0000
    210 H          61.1258   39.2723    0.4964 H        34        0    0.0000
    211 C          60.2205   37.2861    0.4247 C.3      35        0    0.0000
    212 C          60.0305   37.1930   -1.0933 C.3      35        0    0.0000
    213 H          61.1555   36.7929    0.7178 H        35        0    0.0000
    214 H          59.4096   36.7549    0.9385 H        35        0    0.0000
    215 H          59.0961   37.6874   -1.3865 H        35        0    0.0000
    216 H          60.8421   37.7230   -1.6071 H        35        0    0.0000
    217 C          59.9971   35.7092   -1.5979 C.3      36        0    0.0000
    218 C          59.9669   35.6164   -3.1275 C.3      36        0    0.0000
    219 H          60.8762   35.1826   -1.2064 H        36        0    0.0000
    220 H          59.1166   35.2111   -1.1734 H        36        0    0.0000
    221 H          59.0459   36.0705   -3.5138 H        36        0    0.0000
    222 H          60.8019   36.1849   -3.5554 H        36        0    0.0000
    223 C          60.0514   34.1355   -3.6347 C.3      37        0    0.0000
    224 C          60.0379   34.0438   -5.1645 C.3      37        0    0.0000
    225 H          60.9662   33.6777   -3.2384 H        37        0    0.0000
    226 H          59.2094   33.5700   -3.2165 H        37        0    0.0000
    227 H          60.2528   33.0158   -5.4816 H        37        0    0.0000
    228 H          59.0396   34.2894   -5.5473 H        37        0    0.0000
    229 C          61.0837   35.0059   -5.8265 C.3      38        0    0.0000
    230 C          60.8812   35.1305   -7.3406 C.3      38        0    0.0000
    231 H          61.0050   35.9928   -5.3540 H        38        0    0.0000
    232 H          62.0928   34.6331   -5.6114 H        38        0    0.0000
    233 H          60.4102   36.0921   -7.5793 H        38        0    0.0000
    234 H          61.8517   35.1196   -7.8521 H        38        0    0.0000
    235 C          59.9926   33.9755   -7.9183 C.3      39        0    0.0000
    236 C          59.7613   34.1194   -9.4265 C.3      39        0    0.0000
    237 H          60.4766   33.0150   -7.7019 H        39        0    0.0000
    238 H          59.0316   33.9703   -7.3891 H        39        0    0.0000
    239 H          59.3089   33.2036   -9.8268 H        39        0    0.0000
    240 H          59.0517   34.9328   -9.6223 H        39        0    0.0000
    241 C          61.0900   34.4092  -10.2064 C.3      40        0    0.0000
    242 C          60.8481   34.6316  -11.7034 C.3      40        0    0.0000
    243 H          61.5720   35.2918   -9.7680 H        40        0    0.0000
    244 H          61.7781   33.5678  -10.0574 H        40        0    0.0000
    245 H          60.4295   35.6315  -11.8723 H        40        0    0.0000
    246 H          61.7996   34.5923  -12.2481 H        40        0    0.0000
    247 C          59.8729   33.5660  -12.3124 C.3      41        0    0.0000
    248 C          59.5882   33.8204  -13.7967 C.3      41        0    0.0000
    249 H          60.3106   32.5689  -12.1789 H        41        0    0.0000
    250 H          58.9357   33.5776  -11.7422 H        41        0    0.0000
    251 H          59.0846   32.9511  -14.2375 H        41        0    0.0000
    252 H          58.9041   34.6708  -13.9082 H        41        0    0.0000
    253 C          60.8955   34.1135  -14.6107 C.3      42        0    0.0000
    254 C          60.6001   34.5045  -16.0629 C.3      42        0    0.0000
    255 H          61.4509   34.9165  -14.1105 H        42        0    0.0000
    256 H          61.5360   33.2233  -14.5837 H        42        0    0.0000
    257 H          60.0688   35.4638  -16.0936 H        42        0    0.0000
    258 H          61.5388   34.6466  -16.6126 H        42        0    0.0000
    259 C          59.7383   33.4256  -16.8051 C.3      43        0    0.0000
    260 C          59.5494   33.7541  -18.2902 C.3      43        0    0.0000
    261 H          60.2239   32.4481  -16.6949 H        43        0    0.0000
    262 H          58.7625   33.3503  -16.3095 H        43        0    0.0000
    263 H          59.0177   32.9361  -18.7917 H        43        0    0.0000
    264 H          58.9258   34.6499  -18.4009 H        43        0    0.0000
    265 C          60.9139   33.9945  -19.0237 C.3      44        0    0.0000
    266 C          60.7211   34.4508  -20.4741 C.3      44        0    0.0000
    267 H          61.4875   34.7453  -18.4663 H        44        0    0.0000
    268 H          61.4986   33.0667  -18.9958 H        44        0    0.0000
    269 H          60.4855   35.5218  -20.5034 H        44        0    0.0000
    270 H          61.6531   34.3177  -21.0373 H        44        0    0.0000
    271 C          59.5762   33.6616  -21.1980 C.3      45        0    0.0000
    272 C          59.4595   34.0361  -22.6796 C.3      45        0    0.0000
    273 H          59.7685   32.5864  -21.0957 H        45        0    0.0000
    274 H          58.6283   33.8625  -20.6835 H        45        0    0.0000
    275 H          58.7140   33.3988  -23.1711 H        45        0    0.0000
    276 H          59.1056   35.0697  -22.7796 H        45        0    0.0000
    277 C          60.8243   33.8939  -23.4376 C.3      46        0    0.0000
    278 C          60.7181   34.3111  -24.9085 C.3      46        0    0.0000
    279 H          61.5781   34.5056  -22.9266 H        46        0    0.0000
    280 H          61.1620   32.8526  -23.3654 H        46        0    0.0000
    281 H          60.6545   35.4035  -24.9860 H        46        0    0.0000
    282 H          61.6221   34.0089  -25.4515 H        46        0    0.0000
    283 C          59.4692   33.6808  -25.6161 C.3      47        0    0.0000
    284 C          59.3808   34.0720  -27.0953 C.3      47        0    0.0000
    285 H          59.5207   32.5893  -25.5181 H        47        0    0.0000
    286 H          58.5634   34.0022  -25.0872 H        47        0    0.0000
    287 H          58.5833   33.5021  -27.5881 H        47        0    0.0000
    288 H          59.1144   35.1321  -27.1888 H        47        0    0.0000
    289 C          60.7271   33.8202  -27.8580 C.3      48        0    0.0000
    290 C          60.6540   34.2573  -29.3252 C.3      48        0    0.0000
    291 H          61.5312   34.3611  -27.3439 H        48        0    0.0000
    292 H          60.9748   32.7533  -27.7952 H        48        0    0.0000
    293 H          60.6878   35.3517  -29.3938 H        48        0    0.0000
    294 H          61.5260   33.8802  -29.8739 H        48        0    0.0000
    295 C          59.3519   33.7466  -30.0331 C.3      49        0    0.0000
    296 C          59.3063   34.1345  -31.5152 C.3      49        0    0.0000
    297 H          59.2967   32.6560  -29.9278 H        49        0    0.0000
    298 H          58.4801   34.1581  -29.5095 H        49        0    0.0000
    299 H          58.4487   33.6550  -32.0033 H        49        0    0.0000
    300 H          59.1615   35.2172  -31.6163 H        49        0    0.0000
    301 C          60.6143   33.7263  -32.2767 C.3      50        0    0.0000
    302 C          60.6002   34.1808  -33.7403 C.3      50        0    0.0000
    303 H          61.4767   34.1609  -31.7562 H        50        0    0.0000
    304 H          60.7298   32.6367  -32.2222 H        50        0    0.0000
    305 H          60.7934   35.2590  -33.8013 H        50        0    0.0000
    306 H          61.4054   33.6846  -34.2961 H        50        0    0.0000
    307 C          59.2346   33.8716  -34.4452 C.3      51        0    0.0000
    308 C          59.2446   34.2616  -35.9274 C.3      51        0    0.0000
    309 H          59.0162   32.8017  -34.3392 H        51        0    0.0000
    310 H          58.4357   34.4097  -33.9201 H        51        0    0.0000
    311 H          58.3201   33.9234  -36.4116 H        51        0    0.0000
    312 H          59.2721   35.3536  -36.0289 H        51        0    0.0000
    313 C          60.4686   33.6519  -36.6939 C.3      52        0    0.0000
    314 C          60.5531   34.1481  -38.1416 C.3      52        0    0.0000
    315 H          61.3881   33.9096  -36.1537 H        52        0    0.0000
    316 H          60.3883   32.5580  -36.6753 H        52        0    0.0000
    317 H          61.0018   35.1488  -38.1707 H        52        0    0.0000
    318 H          61.2091   33.4915  -38.7265 H        52        0    0.0000
    319 C          59.1475   34.2042  -38.8333 C.3      53        0    0.0000
    320 C          59.2079   34.8556  -40.2194 C.3      53        0    0.0000
    321 H          58.7521   33.1841  -38.9140 H        53        0    0.0000
    322 H          58.4570   34.7595  -38.1865 H        53        0    0.0000
    323 H          58.6612   34.2430  -40.9470 H        53        0    0.0000
    324 H          58.7132   35.8345  -40.1969 H        53        0    0.0000
    325 C          60.6802   35.0449  -40.7232 C.3      54        0    0.0000
    326 C          60.7481   35.8332  -42.0359 C.3      54        0    0.0000
    327 H          61.2568   35.5600  -39.9449 H        54        0    0.0000
    328 H          61.1392   34.0570  -40.8535 H        54        0    0.0000
    329 H          61.1912   36.8210  -41.8590 H        54        0    0.0000
    330 H          61.4018   35.3180  -42.7506 H        54        0    0.0000
    331 C          59.3355   36.0226  -42.6888 C.3      55        0    0.0000
    332 C          59.3793   36.9484  -43.9095 C.3      55        0    0.0000
    333 H          58.9442   35.0390  -42.9766 H        55        0    0.0000
    334 H          58.6487   36.4266  -41.9347 H        55        0    0.0000
    335 H          59.7706   37.9321  -43.6217 H        55        0    0.0000
    336 H          60.0661   36.5445  -44.6635 H        55        0    0.0000
    337 H          58.3972   37.0802  -44.3635 H        55        0    0.0000
    338 H          69.2798   18.5487  -40.4349 H         0        0    0.0000
@<TRIPOS>BOND
     1     1     2      1
     2     1     3      1
     3     1     4      1
     4     1   338      H
     5     2     5      1
     6     2     6      1
     7     2     7      1
     8     7     8      1
     9     7     9      1
    10     7    10      1
    11     8    11      1
    12     8    12      1
    13     8    13      1
    14    13    14      1
    15    13    15      1
    16    13    16      1
    17    14    17      1
    18    14    18      1
    19    14    19      1
    20    19    20      1
    21    19    21      1
    22    19    22      1
    23    20    23      1
    24    20    24      1
    25    20    25      1
    26    25    26      1
    27    25    27      1
    28    25    28      1
    29    26    29      1
    30    26    30      1
    31    26    31      1
    32    31    32      1
    33    31    33      1
    34    31    34      1
    35    32    35      1
    36    32    36      1
    37    32    37      1
    38    37    38      1
    39    37    39      1
    40    37    40      1
    41    38    41      1
    42    38    42      1
    43    38    43      1
    44    43    44      1
    45    43    45      1
    46    43    46      1
    47    44    47      1
    48    44    48      1
    49    44    49      1
    50    49    50      1
    51    49    51      1
    52    49    52      1
    53    50    53      1
    54    50    54      1
    55    50    55      1
    56    55    56      1
    57    55    57      1
    58    55    58      1
    59    56    59      1
    60    56    60      1
    61    56    61      1
    62    61    62      1
    63    61    63      1
    64    61    64      1
    65    62    65      1
    66    62    66      1
    67    62    67      1
    68    67    68      1
    69    67    69      1
    70    67    70      1
    71    68    71      1
    72    68    72      1
    73    68    73      1
    74    73    74      1
    75    73    75      1
    76    73    76      1
    77    74    77      1
    78    74    78      1
    79    74    79      1
    80    79    80      1
    81    79    81      1
    82    79    82      1
    83    80    83      1
    84    80    84      1
    85    80    85      1
    86    85    86      1
    87    85    87      1
    88    85    88      1
    89    86    89      1
    90    86    90      1
    91    86    91      1
    92    91    92      1
    93    91    93      1
    94    91    94      1
    95    92    95      1
    96    92    96      1
    97    92    97      1
    98    97    98      1
    99    97    99      1
   100    97   100      1
   101    98   101      1
   102    98   102      1
   103    98   103      1
   104   103   104      1
   105   103   105      1
   106   103   106      1
   107   104   107      1
   108   104   108      1
   109   104   109      1
   110   109   110      1
   111   109   111      1
   112   109   112      1
   113   110   113      1
   114   110   114      1
   115   110   115      1
   116   115   116      1
   117   115   117      1
   118   115   118      1
   119   116   119      1
   120   116   120      1
   121   116   121      1
   122   121   122      1
   123   121   123      1
   124   121   124      1
   125   122   125      1
   126   122   126      1
   127   122   127      1
   128   127   128      1
   129   127   129      1
   130   127   130      1
   131   128   131      1
   132   128   132      1
   133   128   133      1
   134   133   134      1
   135   133   135      1
   136   133   136      1
   137   134   137      1
   138   134   138      1
   139   134   139      1
   140   139   140      1
   141   139   141      1
   142   139   142      1
   143   140   143      1
   144   140   144      1
   145   140   145      1
   146   145   146      1
   147   145   147      1
   148   145   148      1
   149   146   149      1
   150   146   150      1
   151   146   151      1
   152   151   152      1
   153   151   153      1
   154   151   154      1
   155   152   155      1
   156   152   156      1
   157   152   157      1
   158   157   158      1
   159   157   159      1
   160   157   160      1
   161   158   161      1
   162   158   162      1
   163   158   163      1
   164   163   164      1
   165   163   165      1
   166   163   166      1
   167   164   167      1
   168   164   168      1
   169   164   169      1
   170   169   170      1
   171   169   171      1
   172   169   172      1
   173   170   173      1
   174   170   174      1
   175   170   175      1
   176   175   176      1
   177   175   177      1
   178   175   178      1
   179   176   179      1
   180   176   180      1
   181   176   181      1
   182   181   182      1
   183   181   183      1
   184   181   184      1
   185   182   185      1
   186   182   186      1
   187   182   187      1
   188   187   188      1
   189   187   189      1
   190   187   190      1
   191   188   191      1
   192   188   192      1
   193   188   193      1
   194   193   194      1
   195   193   195      1
   196   193   196      1
   197   194   197      1
   198   194   198      1
   199   194   199      1
   200   199   200      1
   201   199   201      1
   202   199   202      1
   203   200   203      1
   204   200   204      1
   205   200   205      1
   206   205   206      1
   207   205   207      1
   208   205   208      1
   209   206   209      1
   210   206   210      1
   211   206   211      1
   212   211   212      1
   213   211   213      1
   214   211   214      1
   215   212   215      1
   216   212   216      1
   217   212   217      1
   218   217   218      1
   219   217   219      1
   220   217   220      1
   221   218   221      1
   222   218   222      1
   223   218   223      1
   224   223   224      1
   225   223   225      1
   226   223   226      1
   227   224   227      1
   228   224   228      1
   229   224   229      1
   230   229   230      1
   231   229   231      1
   232   229   232      1
   233   230   233      1
   234   230   234      1
   235   230   235      1
   236   235   236      1
   237   235   237      1
   238   235   238      1
   239   236   239      1
   240   236   240      1
   241   236   241      1
   242   241   242      1
   243   241   243      1
   244   241   244      1
   245   242   245      1
   246   242   246      1
   247   242   247      1
   248   247   248      1
   249   247   249      1
   250   247   250      1
   251   248   251      1
   252   248   252      1
   253   248   253      1
   254   253   254      1
   255   253   255      1
   256   253   256      1
   257   254   257      1
   258   254   258      1
   259   254   259      1
   260   259   260      1
   261   259   261      1
   262   259   262      1
   263   260   263      1
   264   260   264      1
   265   260   265      1
   266   265   266      1
   267   265   267      1
   268   265   268      1
   269   266   269      1
   270   266   270      1
   271   266   271      1
   272   271   272      1
   273   271   273      1
   274   271   274      1
   275   272   275      1
   276   272   276      1
   277   272   277      1
   278   277   278      1
   279   277   279      1
   280   277   280      1
   281   278   281      1
   282   278   282      1
   283   278   283      1
   284   283   284      1
   285   283   285      1
   286   283   286      1
   287   284   287      1
   288   284   288      1
   289   284   289      1
   290   289   290      1
   291   289   291      1
   292   289   292      1
   293   290   293      1
   294   290   294      1
   295   290   295      1
   296   295   296      1
   297   295   297      1
   298   295   298      1
   299   296   299      1
   300   296   300      1
   301   296   301      1
   302   301   302      1
   303   301   303      1
   304   301   304      1
   305   302   305      1
   306   302   306      1
   307   302   307      1
   308   307   308      1
   309   307   309      1
   310   307   310      1
   311   308   311      1
   312   308   312      1
   313   308   313      1
   314   313   314      1
   315   313   315      1
   316   313   316      1
   317   314   317      1
   318   314   318      1
   319   314   319      1
   320   319   320      1
   321   319   321      1
   322   319   322      1
   323   320   323      1
   324   320   324      1
   325   320   325      1
   326   325   326      1
   327   325   327      1
   328   325   328      1
   329   326   329      1
   330   326   330      1
   331   326   331      1
   332   331   332      1
   333   331   333      1
   334   331   334      1
   335   332   335      1
   336   332   336      1
   337   332   337      H
