###
### Created by PolyChef-cpp17 on Thu Feb 27 19:40:30 2025
###

@<TRIPOS>MOLECULE
NO_INFO
488 487 1 0 0
SMALL
USER_CHARGES


@<TRIPOS>ATOM
      1 C         119.2798    1.2287  -39.3449 C.3       0        0    0.0000
      2 C         117.8706    1.0682  -38.7641 C.3       0        0    0.0000
      3 H         119.9271    0.4166  -38.9913 H         0        0    0.0000
      4 H         119.7280    2.1655  -38.9913 H         0        0    0.0000
      5 H         117.3721    2.0440  -38.7113 H         0        0    0.0000
      6 H         117.2612    0.4384  -39.4240 H         0        0    0.0000
      7 C         117.8873    0.4313  -37.3318 C.3       1        0    0.0000
      8 C         119.1647    0.7755  -36.5579 C.3       1        0    0.0000
      9 H         117.0068    0.7812  -36.7789 H         1        0    0.0000
     10 H         117.7873   -0.6570  -37.4275 H         1        0    0.0000
     11 H         120.0452    0.6007  -37.1886 H         1        0    0.0000
     12 H         119.1707    1.8410  -36.2968 H         1        0    0.0000
     13 C         119.3089   -0.0675  -35.2442 C.3       2        0    0.0000
     14 C         120.2050    0.6200  -34.2082 C.3       2        0    0.0000
     15 H         118.3105   -0.2394  -34.8230 H         2        0    0.0000
     16 H         119.7170   -1.0533  -35.4996 H         2        0    0.0000
     17 H         121.2598    0.5024  -34.4861 H         2        0    0.0000
     18 H         120.0019    1.6980  -34.1914 H         2        0    0.0000
     19 C         119.9953    0.0438  -32.7655 C.3       3        0    0.0000
     20 C         120.6126    0.9404  -31.6865 C.3       3        0    0.0000
     21 H         118.9198   -0.0756  -32.5853 H         3        0    0.0000
     22 H         120.4360   -0.9597  -32.7180 H         3        0    0.0000
     23 H         121.7017    0.9836  -31.8112 H         3        0    0.0000
     24 H         120.2422    1.9675  -31.7938 H         3        0    0.0000
     25 C         120.2894    0.4355  -30.2381 C.3       4        0    0.0000
     26 C         120.8850    1.3464  -29.1590 C.3       4        0    0.0000
     27 H         119.2005    0.3743  -30.1197 H         4        0    0.0000
     28 H         120.6764   -0.5848  -30.1247 H         4        0    0.0000
     29 H         121.9746    1.4027  -29.2736 H         4        0    0.0000
     30 H         120.5027    2.3680  -29.2761 H         4        0    0.0000
     31 C         120.5546    0.8462  -27.7105 C.3       5        0    0.0000
     32 C         121.1544    1.7543  -26.6314 C.3       5        0    0.0000
     33 H         119.4649    0.7934  -27.5946 H         5        0    0.0000
     34 H         120.9336   -0.1768  -27.5946 H         5        0    0.0000
     35 H         122.2439    1.8082  -26.7481 H         5        0    0.0000
     36 H         120.7743    2.7770  -26.7465 H         5        0    0.0000
     37 C         120.8256    1.2531  -25.1829 C.3       6        0    0.0000
     38 C         121.4190    2.1655  -24.1038 C.3       6        0    0.0000
     39 H         119.7361    1.1939  -25.0681 H         6        0    0.0000
     40 H         121.2106    0.2325  -25.0660 H         6        0    0.0000
     41 H         122.5084    2.2242  -24.2184 H         6        0    0.0000
     42 H         121.0343    3.1862  -24.2210 H         6        0    0.0000
     43 C         121.0895    1.6646  -22.6554 C.3       7        0    0.0000
     44 C         122.1240    2.1373  -21.6280 C.3       7        0    0.0000
     45 H         120.0910    2.0228  -22.3759 H         7        0    0.0000
     46 H         121.0403    0.5687  -22.6628 H         7        0    0.0000
     47 H         123.1334    1.8582  -21.9548 H         7        0    0.0000
     48 H         122.1080    3.2317  -21.5542 H         7        0    0.0000
     49 C         121.8680    1.5312  -20.2051 C.3       8        0    0.0000
     50 C         121.8159    2.6081  -19.1158 C.3       8        0    0.0000
     51 H         120.9257    0.9696  -20.2242 H         8        0    0.0000
     52 H         122.6615    0.8075  -19.9810 H         8        0    0.0000
     53 H         122.8328    2.9120  -18.8384 H         8        0    0.0000
     54 H         121.3121    3.5049  -19.4972 H         8        0    0.0000
     55 C         121.0669    2.1163  -17.8295 C.3       9        0    0.0000
     56 C         121.9520    2.1845  -16.5801 C.3       9        0    0.0000
     57 H         120.1681    2.7291  -17.6876 H         9        0    0.0000
     58 H         120.7239    1.0869  -17.9918 H         9        0    0.0000
     59 H         122.9729    1.8657  -16.8245 H         9        0    0.0000
     60 H         122.0220    3.2201  -16.2248 H         9        0    0.0000
     61 C         121.4072    1.2867  -15.4163 C.3      10        0    0.0000
     62 C         121.6785    1.8963  -14.0366 C.3      10        0    0.0000
     63 H         120.3291    1.1404  -15.5575 H        10        0    0.0000
     64 H         121.8716    0.2953  -15.4874 H        10        0    0.0000
     65 H         122.7559    1.8944  -13.8297 H        10        0    0.0000
     66 H         121.3562    2.9448  -14.0186 H        10        0    0.0000
     67 C         120.9424    1.1217  -12.8896 C.3      11        0    0.0000
     68 C         121.3661    1.6043  -11.4979 C.3      11        0    0.0000
     69 H         119.8599    1.2456  -13.0173 H        11        0    0.0000
     70 H         121.1515    0.0500  -12.9959 H        11        0    0.0000
     71 H         122.4540    1.5187  -11.3851 H        11        0    0.0000
     72 H         121.1193    2.6663  -11.3768 H        11        0    0.0000
     73 C         120.6736    0.7907  -10.3507 C.3      12        0    0.0000
     74 C         121.0915    1.2783   -8.9590 C.3      12        0    0.0000
     75 H         119.5857    0.8716  -10.4667 H        12        0    0.0000
     76 H         120.9249   -0.2707  -10.4686 H        12        0    0.0000
     77 H         122.1792    1.1961   -8.8426 H        12        0    0.0000
     78 H         120.8414    2.3400   -8.8416 H        12        0    0.0000
     79 C         120.3977    0.4659   -7.8118 C.3      13        0    0.0000
     80 C         120.8147    0.9541   -6.4201 C.3      13        0    0.0000
     81 H         119.3099    0.5474   -7.9287 H        13        0    0.0000
     82 H         120.6484   -0.5957   -7.9288 H        13        0    0.0000
     83 H         121.9023    0.8714   -6.3028 H        13        0    0.0000
     84 H         120.5651    2.0160   -6.3036 H        13        0    0.0000
     85 C         120.1196    0.1429   -5.2729 C.3      14        0    0.0000
     86 C         120.5383    0.6296   -3.8812 C.3      14        0    0.0000
     87 H         119.0319    0.2269   -5.3893 H        14        0    0.0000
     88 H         120.3678   -0.9193   -5.3904 H        14        0    0.0000
     89 H         121.6278    0.5625   -3.7713 H        14        0    0.0000
     90 H         120.2738    1.6871   -3.7572 H        14        0    0.0000
     91 C         119.8627   -0.1981   -2.7341 C.3      15        0    0.0000
     92 C         120.2738    0.2950   -1.3424 C.3      15        0    0.0000
     93 H         118.7733   -0.1369   -2.8483 H        15        0    0.0000
     94 H         120.1332   -1.2545   -2.8540 H        15        0    0.0000
     95 H         121.3601    0.2059   -1.2175 H        15        0    0.0000
     96 H         120.0304    1.3591   -1.2333 H        15        0    0.0000
     97 C         119.5660   -0.5055   -0.1954 C.3      16        0    0.0000
     98 C         119.7185    0.1766    1.1686 C.3      16        0    0.0000
     99 H         118.5032   -0.6151   -0.4445 H        16        0    0.0000
    100 H         119.9870   -1.5179   -0.1589 H        16        0    0.0000
    101 H         119.9383   -0.5712    1.9406 H        16        0    0.0000
    102 H         120.5689    0.8694    1.1498 H        16        0    0.0000
    103 C         118.4308    0.9683    1.5842 C.3      17        0    0.0000
    104 C         118.4428    1.3601    3.0659 C.3      17        0    0.0000
    105 H         118.3502    1.8658    0.9584 H        17        0    0.0000
    106 H         117.5504    0.3515    1.3653 H        17        0    0.0000
    107 H         118.7129    0.4934    3.6819 H        17        0    0.0000
    108 H         119.2076    2.1256    3.2464 H        17        0    0.0000
    109 C         117.0553    1.9089    3.5465 C.3      18        0    0.0000
    110 C         117.0689    2.3062    5.0267 C.3      18        0    0.0000
    111 H         116.7832    2.7729    2.9276 H        18        0    0.0000
    112 H         116.2911    1.1418    3.3699 H        18        0    0.0000
    113 H         117.3111    1.4349    5.6478 H        18        0    0.0000
    114 H         117.8534    3.0510    5.2091 H        18        0    0.0000
    115 C         115.6941    2.8951    5.4964 C.3      19        0    0.0000
    116 C         115.7067    3.2895    6.9774 C.3      19        0    0.0000
    117 H         115.4529    3.7676    4.8768 H        19        0    0.0000
    118 H         114.9092    2.1511    5.3120 H        19        0    0.0000
    119 H         115.9685    2.4218    7.5956 H        19        0    0.0000
    120 H         116.4776    4.0490    7.1578 H        19        0    0.0000
    121 C         114.3230    3.8508    7.4546 C.3      20        0    0.0000
    122 C         114.3365    4.2480    8.9348 C.3      20        0    0.0000
    123 H         114.0602    4.7172    6.8350 H        20        0    0.0000
    124 H         113.5525    3.0906    7.2761 H        20        0    0.0000
    125 H         113.4135    4.7836    9.1890 H        20        0    0.0000
    126 H         114.3635    3.3503    9.5649 H        20        0    0.0000
    127 C         115.5629    5.1555    9.2952 C.3      21        0    0.0000
    128 C         115.5761    5.5531   10.7754 C.3      21        0    0.0000
    129 H         116.4860    4.6197    9.0414 H        21        0    0.0000
    130 H         115.5361    6.0529    8.6649 H        21        0    0.0000
    131 H         116.5058    5.2128   11.2480 H        21        0    0.0000
    132 H         115.5555    6.6458   10.8715 H        21        0    0.0000
    133 C         114.3602    4.9536   11.5625 C.3      22        0    0.0000
    134 C         114.1484    5.6410   12.9158 C.3      22        0    0.0000
    135 H         113.4577    5.0502   10.9462 H        22        0    0.0000
    136 H         114.5285    3.8794   11.7085 H        22        0    0.0000
    137 H         114.7302    5.1295   13.6927 H        22        0    0.0000
    138 H         114.5168    6.6736   12.8750 H        22        0    0.0000
    139 C         112.6404    5.6590   13.3436 C.3      23        0    0.0000
    140 C         112.4303    6.3342   14.7033 C.3      23        0    0.0000
    141 H         112.0601    6.1794   12.5715 H        23        0    0.0000
    142 H         112.2693    4.6271   13.3746 H        23        0    0.0000
    143 H         113.0568    5.8517   15.4637 H        23        0    0.0000
    144 H         112.7459    7.3838   14.6549 H        23        0    0.0000
    145 C         110.9349    6.2773   15.1702 C.3      24        0    0.0000
    146 C         110.7245    6.9539   16.5292 C.3      24        0    0.0000
    147 H         110.3083    6.7587   14.4093 H        24        0    0.0000
    148 H         110.6197    5.2276   15.2198 H        24        0    0.0000
    149 H         109.6523    7.0381   16.7456 H        24        0    0.0000
    150 H         111.1596    6.3392   17.3269 H        24        0    0.0000
    151 C         111.3653    8.3835   16.5866 C.3      25        0    0.0000
    152 C         111.2336    9.0238   17.9729 C.3      25        0    0.0000
    153 H         112.4232    8.3084   16.3059 H        25        0    0.0000
    154 H         110.8834    9.0175   15.8321 H        25        0    0.0000
    155 H         112.2260    9.1584   18.4209 H        25        0    0.0000
    156 H         110.7895   10.0231   17.8850 H        25        0    0.0000
    157 C         110.3535    8.1633   18.9436 C.3      26        0    0.0000
    158 C         109.9771    8.9274   20.2177 C.3      26        0    0.0000
    159 H         109.4469    7.8474   18.4127 H        26        0    0.0000
    160 H         110.9022    7.2489   19.2016 H        26        0    0.0000
    161 H         110.8303    8.9532   20.9068 H        26        0    0.0000
    162 H         109.7372    9.9698   19.9742 H        26        0    0.0000
    163 C         108.7514    8.2859   20.9550 C.3      27        0    0.0000
    164 C         108.3655    9.0587   22.2211 C.3      27        0    0.0000
    165 H         107.9013    8.2500   20.2625 H        27        0    0.0000
    166 H         108.9954    7.2467   21.2084 H        27        0    0.0000
    167 H         107.4178    8.6769   22.6207 H        27        0    0.0000
    168 H         109.1213    8.9043   23.0011 H        27        0    0.0000
    169 C         108.2192   10.5970   21.9566 C.3      28        0    0.0000
    170 C         107.9014   11.3786   23.2361 C.3      28        0    0.0000
    171 H         109.1495   10.9690   21.5098 H        28        0    0.0000
    172 H         107.4278   10.7543   21.2134 H        28        0    0.0000
    173 H         108.7187   12.0737   23.4651 H        28        0    0.0000
    174 H         107.0009   11.9881   23.0907 H        28        0    0.0000
    175 C         107.6798   10.4358   24.4687 C.3      29        0    0.0000
    176 C         107.1468   11.1924   25.6904 C.3      29        0    0.0000
    177 H         106.9799    9.6403   24.1842 H        29        0    0.0000
    178 H         108.6301    9.9460   24.7147 H        29        0    0.0000
    179 H         107.9794   11.6329   26.2527 H        29        0    0.0000
    180 H         106.5088   12.0248   25.3685 H        29        0    0.0000
    181 C         106.3230   10.2662   26.6501 C.3      30        0    0.0000
    182 C         105.7871   11.0236   27.8699 C.3      30        0    0.0000
    183 H         105.4919    9.8236   26.0871 H        30        0    0.0000
    184 H         106.9619    9.4352   26.9740 H        30        0    0.0000
    185 H         104.6925   10.9570   27.9030 H        30        0    0.0000
    186 H         106.1588   10.5614   28.7928 H        30        0    0.0000
    187 C         106.2013   12.5355   27.8596 C.3      31        0    0.0000
    188 C         105.6577   13.2950   29.0748 C.3      31        0    0.0000
    189 H         107.2960   12.6020   27.8333 H        31        0    0.0000
    190 H         105.8353   12.9961   26.9336 H        31        0    0.0000
    191 H         106.1058   14.2951   29.1246 H        31        0    0.0000
    192 H         104.5748   13.4396   28.9744 H        31        0    0.0000
    193 C         105.9446   12.5451   30.4212 C.3      32        0    0.0000
    194 C         105.1285   13.1128   31.5876 C.3      32        0    0.0000
    195 H         105.7191   11.4798   30.2876 H        32        0    0.0000
    196 H         107.0167   12.6148   30.6431 H        32        0    0.0000
    197 H         104.2742   12.4589   31.8024 H        32        0    0.0000
    198 H         105.7410   13.1398   32.4973 H        32        0    0.0000
    199 C         104.5972   14.5580   31.2931 C.3      33        0    0.0000
    200 C         103.7436   15.1081   32.4411 C.3      33        0    0.0000
    201 H         105.4534   15.2191   31.1107 H        33        0    0.0000
    202 H         104.0118   14.5373   30.3655 H        33        0    0.0000
    203 H         104.3764   15.3219   33.3114 H        33        0    0.0000
    204 H         103.2831   16.0589   32.1452 H        33        0    0.0000
    205 C         102.6128   14.1113   32.8712 C.3      34        0    0.0000
    206 C         101.9485   14.5206   34.1904 C.3      34        0    0.0000
    207 H         101.8628   14.0612   32.0721 H        34        0    0.0000
    208 H         103.0432   13.1064   32.9627 H        34        0    0.0000
    209 H         101.4399   15.4854   34.0720 H        34        0    0.0000
    210 H         101.1779   13.7900   34.4661 H        34        0    0.0000
    211 C         102.9804   14.6342   35.3650 C.3      35        0    0.0000
    212 C         102.3497   15.2073   36.6389 C.3      35        0    0.0000
    213 H         103.3978   13.6398   35.5664 H        35        0    0.0000
    214 H         103.8162   15.2670   35.0415 H        35        0    0.0000
    215 H         101.6052   14.5072   37.0378 H        35        0    0.0000
    216 H         103.1150   15.3296   37.4153 H        35        0    0.0000
    217 C         101.6582   16.5917   36.3885 C.3      36        0    0.0000
    218 C         100.8971   17.0922   37.6210 C.3      36        0    0.0000
    219 H         102.4236   17.3217   36.0969 H        36        0    0.0000
    220 H         100.9735   16.4961   35.5367 H        36        0    0.0000
    221 H         101.1531   18.1400   37.8214 H        36        0    0.0000
    222 H          99.8165   17.0623   37.4336 H        36        0    0.0000
    223 C         101.2119   16.2416   38.8996 C.3      37        0    0.0000
    224 C         100.4499   16.7414   40.1319 C.3      37        0    0.0000
    225 H         100.9566   15.1937   38.6989 H        37        0    0.0000
    226 H         102.2924   16.2722   39.0874 H        37        0    0.0000
    227 H          99.3856   16.4908   40.0433 H        37        0    0.0000
    228 H         100.8187   16.2357   41.0329 H        37        0    0.0000
    229 C         100.5895   18.2903   40.3289 C.3      38        0    0.0000
    230 C          99.6907   18.8162   41.4535 C.3      38        0    0.0000
    231 H         101.6390   18.5262   40.5448 H        38        0    0.0000
    232 H         100.3421   18.7907   39.3845 H        38        0    0.0000
    233 H         100.2613   19.4852   42.1094 H        38        0    0.0000
    234 H          98.8709   19.4115   41.0325 H        38        0    0.0000
    235 C          99.0823   17.6587   42.3182 C.3      39        0    0.0000
    236 C          98.2584   18.1864   43.4979 C.3      39        0    0.0000
    237 H          98.4567   17.0279   41.6746 H        39        0    0.0000
    238 H          99.8989   17.0238   42.6837 H        39        0    0.0000
    239 H          97.3455   18.6723   43.1316 H        39        0    0.0000
    240 H          97.9378   17.3532   44.1353 H        39        0    0.0000
    241 C          99.0606   19.2114   44.3716 C.3      40        0    0.0000
    242 C          98.1870   19.8674   45.4464 C.3      40        0    0.0000
    243 H          99.9060   18.6917   44.8395 H        40        0    0.0000
    244 H          99.4875   19.9787   43.7139 H        40        0    0.0000
    245 H          98.7058   19.8537   46.4129 H        40        0    0.0000
    246 H          98.0123   20.9215   45.1976 H        40        0    0.0000
    247 C          96.8024   19.1498   45.6061 C.3      41        0    0.0000
    248 C          95.9672   19.7457   46.7447 C.3      41        0    0.0000
    249 H          96.2542   19.2243   44.6587 H        41        0    0.0000
    250 H          96.9763   18.0817   45.7863 H        41        0    0.0000
    251 H          95.6455   20.7615   46.4834 H        41        0    0.0000
    252 H          95.0549   19.1544   46.8913 H        41        0    0.0000
    253 C          96.7581   19.7982   48.0971 C.3      42        0    0.0000
    254 C          96.0099   20.5872   49.1773 C.3      42        0    0.0000
    255 H          96.9414   18.7723   48.4397 H        42        0    0.0000
    256 H          97.7411   20.2497   47.9145 H        42        0    0.0000
    257 H          95.0790   20.0712   49.4431 H        42        0    0.0000
    258 H          96.6138   20.6385   50.0918 H        42        0    0.0000
    259 C          95.6656   22.0455   48.7167 C.3      43        0    0.0000
    260 C          94.8328   22.8020   49.7575 C.3      43        0    0.0000
    261 H          96.6007   22.5841   48.5194 H        43        0    0.0000
    262 H          95.1232   21.9967   47.7643 H        43        0    0.0000
    263 H          95.2979   23.7705   49.9795 H        43        0    0.0000
    264 H          93.8344   23.0165   49.3566 H        43        0    0.0000
    265 C          94.6786   21.9973   51.0939 C.3      44        0    0.0000
    266 C          93.8701   22.7660   52.1448 C.3      44        0    0.0000
    267 H          94.1944   21.0375   50.8749 H        44        0    0.0000
    268 H          95.6773   21.7645   51.4838 H        44        0    0.0000
    269 H          94.2018   23.8110   52.1841 H        44        0    0.0000
    270 H          92.8094   22.7824   51.8654 H        44        0    0.0000
    271 C          94.0063   22.1385   53.5749 C.3      45        0    0.0000
    272 C          93.2109   22.9169   54.6288 C.3      45        0    0.0000
    273 H          93.6634   21.0971   53.5383 H        45        0    0.0000
    274 H          95.0681   22.1111   53.8494 H        45        0    0.0000
    275 H          92.1355   22.7573   54.4822 H        45        0    0.0000
    276 H          93.4508   22.5439   55.6323 H        45        0    0.0000
    277 C          93.5049   24.4559   54.5781 C.3      46        0    0.0000
    278 C          92.6699   25.2406   55.5959 C.3      46        0    0.0000
    279 H          94.5740   24.6179   54.7638 H        46        0    0.0000
    280 H          93.3024   24.8213   53.5637 H        46        0    0.0000
    281 H          93.3263   25.8408   56.2381 H        46        0    0.0000
    282 H          92.0079   25.9446   55.0765 H        46        0    0.0000
    283 C          91.7992   24.3016   56.5002 C.3      47        0    0.0000
    284 C          91.1647   25.0526   57.6760 C.3      47        0    0.0000
    285 H          91.0182   23.8408   55.8827 H        47        0    0.0000
    286 H          92.4298   23.4845   56.8720 H        47        0    0.0000
    287 H          91.8558   25.8179   58.0505 H        47        0    0.0000
    288 H          90.2619   25.5793   57.3428 H        47        0    0.0000
    289 C          90.7839   24.0944   58.8568 C.3      48        0    0.0000
    290 C          90.1520   24.8457   60.0338 C.3      48        0    0.0000
    291 H          90.0912   23.3303   58.4828 H        48        0    0.0000
    292 H          91.6863   23.5662   59.1887 H        48        0    0.0000
    293 H          89.1505   24.4480   60.2398 H        48        0    0.0000
    294 H          90.7462   24.6892   60.9426 H        48        0    0.0000
    295 C          90.0383   26.3857   59.7634 C.3      49        0    0.0000
    296 C          89.4123   27.1379   60.9430 C.3      49        0    0.0000
    297 H          91.0392   26.7825   59.5528 H        49        0    0.0000
    298 H          89.4402   26.5424   58.8572 H        49        0    0.0000
    299 H          90.1232   27.1881   61.7770 H        49        0    0.0000
    300 H          89.1916   28.1730   60.6544 H        49        0    0.0000
    301 C          88.0908   26.4606   61.4454 C.3      50        0    0.0000
    302 C          87.6429   27.0010   62.8079 C.3      50        0    0.0000
    303 H          87.3038   26.6239   60.6988 H        50        0    0.0000
    304 H          88.2493   25.3767   61.5043 H        50        0    0.0000
    305 H          86.5517   27.1122   62.8283 H        50        0    0.0000
    306 H          87.9016   26.2867   63.5994 H        50        0    0.0000
    307 C          88.2982   28.3852   63.1427 C.3      51        0    0.0000
    308 C          87.8876   28.9030   64.5255 C.3      51        0    0.0000
    309 H          89.3891   28.2825   63.0882 H        51        0    0.0000
    310 H          88.0109   29.1086   62.3695 H        51        0    0.0000
    311 H          88.7708   28.9974   65.1694 H        51        0    0.0000
    312 H          87.4531   29.9066   64.4376 H        51        0    0.0000
    313 C          86.8485   27.9624   65.2277 C.3      52        0    0.0000
    314 C          86.4143   28.4963   66.5972 C.3      52        0    0.0000
    315 H          85.9750   27.8498   64.5736 H        52        0    0.0000
    316 H          87.2916   26.9647   65.3362 H        52        0    0.0000
    317 H          85.5869   27.8931   66.9909 H        52        0    0.0000
    318 H          87.2392   28.4062   67.3148 H        52        0    0.0000
    319 C          85.9611   29.9956   66.5338 C.3      53        0    0.0000
    320 C          85.5303   30.5306   67.9039 C.3      53        0    0.0000
    321 H          86.7876   30.5985   66.1375 H        53        0    0.0000
    322 H          85.1345   30.0852   65.8181 H        53        0    0.0000
    323 H          86.4083   30.6678   68.5472 H        53        0    0.0000
    324 H          85.0639   31.5173   67.7928 H        53        0    0.0000
    325 C          84.5204   29.5727   68.6250 C.3      54        0    0.0000
    326 C          84.2971   29.9608   70.0908 C.3      54        0    0.0000
    327 H          83.5673   29.5900   68.0819 H        54        0    0.0000
    328 H          84.9005   28.5455   68.5615 H        54        0    0.0000
    329 H          83.2890   29.6671   70.4083 H        54        0    0.0000
    330 H          85.0007   29.4188   70.7348 H        54        0    0.0000
    331 C          84.4744   31.4997   70.3315 C.3      55        0    0.0000
    332 C          84.1161   31.9085   71.7645 C.3      55        0    0.0000
    333 H          85.5131   31.7748   70.1104 H        55        0    0.0000
    334 H          83.8452   32.0442   69.6165 H        55        0    0.0000
    335 H          84.8410   31.4828   72.4695 H        55        0    0.0000
    336 H          84.1762   32.9987   71.8709 H        55        0    0.0000
    337 C          82.6775   31.4393   72.1741 C.3      56        0    0.0000
    338 C          82.3540   31.7666   73.6360 C.3      56        0    0.0000
    339 H          81.9470   31.9188   71.5107 H        56        0    0.0000
    340 H          82.5961   30.3587   72.0037 H        56        0    0.0000
    341 H          81.2769   31.6614   73.8156 H        56        0    0.0000
    342 H          82.8555   31.0528   74.3012 H        56        0    0.0000
    343 C          82.7926   33.2190   74.0308 C.3      57        0    0.0000
    344 C          82.4214   33.5650   75.4770 C.3      57        0    0.0000
    345 H          83.8763   33.3122   73.8880 H        57        0    0.0000
    346 H          82.3216   33.9303   73.3410 H        57        0    0.0000
    347 H          83.0438   32.9892   76.1731 H        57        0    0.0000
    348 H          82.6255   34.6246   75.6745 H        57        0    0.0000
    349 C          80.9129   33.2743   75.7889 C.3      58        0    0.0000
    350 C          80.5356   33.6437   77.2278 C.3      58        0    0.0000
    351 H          80.2908   33.8358   75.0810 H        58        0    0.0000
    352 H          80.7132   32.2107   75.6090 H        58        0    0.0000
    353 H          79.4497   33.5673   77.3633 H        58        0    0.0000
    354 H          80.9915   32.9348   77.9300 H        58        0    0.0000
    355 C          80.9913   35.0948   77.6075 C.3      59        0    0.0000
    356 C          80.6580   35.4465   79.0616 C.3      59        0    0.0000
    357 H          82.0716   35.1820   77.4375 H        59        0    0.0000
    358 H          80.5070   35.8068   76.9278 H        59        0    0.0000
    359 H          81.5804   35.6448   79.6215 H        59        0    0.0000
    360 H          80.0626   36.3671   79.0989 H        59        0    0.0000
    361 C          79.8653   34.3024   79.7828 C.3      60        0    0.0000
    362 C          79.7457   34.5408   81.2920 C.3      60        0    0.0000
    363 H          78.8672   34.2264   79.3337 H        60        0    0.0000
    364 H          80.3703   33.3475   79.5917 H        60        0    0.0000
    365 H          79.6328   35.6129   81.4957 H        60        0    0.0000
    366 H          78.8447   34.0499   81.6802 H        60        0    0.0000
    367 C          80.9915   34.0054   82.0787 C.3      61        0    0.0000
    368 C          80.8493   34.1981   83.5925 C.3      61        0    0.0000
    369 H          81.1264   32.9419   81.8458 H        61        0    0.0000
    370 H          81.8880   34.5235   81.7161 H        61        0    0.0000
    371 H          81.6738   33.6969   84.1146 H        61        0    0.0000
    372 H          80.9184   35.2636   83.8443 H        61        0    0.0000
    373 C          79.4908   33.6371   84.1378 C.3      62        0    0.0000
    374 C          79.2638   33.9953   85.6106 C.3      62        0    0.0000
    375 H          78.6726   34.0335   83.5238 H        62        0    0.0000
    376 H          79.4813   32.5476   84.0098 H        62        0    0.0000
    377 H          78.4732   34.7510   85.6964 H        62        0    0.0000
    378 H          78.9176   33.1131   86.1633 H        62        0    0.0000
    379 C          80.5629   34.5432   86.2959 C.3      63        0    0.0000
    380 C          80.3849   34.7393   87.8055 C.3      63        0    0.0000
    381 H          81.3865   33.8448   86.1018 H        63        0    0.0000
    382 H          80.8381   35.4940   85.8229 H        63        0    0.0000
    383 H          81.3316   35.0602   88.2573 H        63        0    0.0000
    384 H          79.6574   35.5376   87.9978 H        63        0    0.0000
    385 C          79.9010   33.4314   88.5215 C.3      64        0    0.0000
    386 C          79.7565   33.6177   90.0359 C.3      64        0    0.0000
    387 H          78.9415   33.1247   88.0869 H        64        0    0.0000
    388 H          80.6151   32.6264   88.3079 H        64        0    0.0000
    389 H          78.8973   34.2636   90.2551 H        64        0    0.0000
    390 H          79.5553   32.6521   90.5162 H        64        0    0.0000
    391 C          81.0390   34.2461   90.6822 C.3      65        0    0.0000
    392 C          80.8126   34.6561   92.1416 C.3      65        0    0.0000
    393 H          81.8591   33.5203   90.6182 H        65        0    0.0000
    394 H          81.3428   35.1178   90.0894 H        65        0    0.0000
    395 H          81.7298   34.4994   92.7228 H        65        0    0.0000
    396 H          80.5817   35.7269   92.2000 H        65        0    0.0000
    397 C          79.6464   33.8503   92.8110 C.3      66        0    0.0000
    398 C          79.5173   34.1510   94.3083 C.3      66        0    0.0000
    399 H          78.7083   34.0927   92.2964 H        66        0    0.0000
    400 H          79.8227   32.7786   92.6563 H        66        0    0.0000
    401 H          79.1958   35.1893   94.4571 H        66        0    0.0000
    402 H          78.7431   33.5145   94.7544 H        66        0    0.0000
    403 C          80.8638   33.9237   95.0781 C.3      67        0    0.0000
    404 C          80.7527   34.2878   96.5628 C.3      67        0    0.0000
    405 H          81.1602   32.8730   94.9697 H        67        0    0.0000
    406 H          81.6492   34.5233   94.6015 H        67        0    0.0000
    407 H          81.6259   33.9101   97.1091 H        67        0    0.0000
    408 H          80.7530   35.3782   96.6837 H        67        0    0.0000
    409 C          79.4543   33.7067   97.2214 C.3      68        0    0.0000
    410 C          79.3367   34.0816   98.7029 C.3      68        0    0.0000
    411 H          78.5816   34.0768   96.6693 H        68        0    0.0000
    412 H          79.4587   32.6154   97.1088 H        68        0    0.0000
    413 H          79.0829   35.1442   98.8029 H        68        0    0.0000
    414 H          78.5201   33.5173   99.1700 H        68        0    0.0000
    415 C          80.6611   33.8018   99.4935 C.3      69        0    0.0000
    416 C          80.5720   34.2550  100.9549 C.3      69        0    0.0000
    417 H          80.8816   32.7282   99.4453 H        69        0    0.0000
    418 H          81.4890   34.3162   98.9899 H        69        0    0.0000
    419 H          81.4039   33.8317  101.5314 H        69        0    0.0000
    420 H          80.6686   35.3460  101.0170 H        69        0    0.0000
    421 C          79.2221   33.8281  101.6280 C.3      70        0    0.0000
    422 C          79.1799   34.1798  103.1192 C.3      70        0    0.0000
    423 H          78.3940   34.3192  101.1021 H        70        0    0.0000
    424 H          79.0853   32.7482  101.4922 H        70        0    0.0000
    425 H          79.1506   35.2689  103.2481 H        70        0    0.0000
    426 H          78.2630   33.7840  103.5732 H        70        0    0.0000
    427 C          80.4156   33.6118  103.8987 C.3      71        0    0.0000
    428 C          80.4593   34.0977  105.3516 C.3      71        0    0.0000
    429 H          80.3787   32.5157  103.8697 H        71        0    0.0000
    430 H          81.3320   33.9101  103.3746 H        71        0    0.0000
    431 H          81.1059   33.4423  105.9482 H        71        0    0.0000
    432 H          80.8987   35.1018  105.3994 H        71        0    0.0000
    433 C          79.0363   34.1371  106.0080 C.3      72        0    0.0000
    434 C          79.0938   34.4879  107.4989 C.3      72        0    0.0000
    435 H          78.4201   34.8701  105.4726 H        72        0    0.0000
    436 H          78.5558   33.1607  105.8695 H        72        0    0.0000
    437 H          79.4338   35.5227  107.6290 H        72        0    0.0000
    438 H          78.0903   34.4284  107.9383 H        72        0    0.0000
    439 C          80.0517   33.5371  108.2963 C.3      73        0    0.0000
    440 C          80.2389   33.9869  109.7495 C.3      73        0    0.0000
    441 H          79.6442   32.5190  108.2672 H        73        0    0.0000
    442 H          81.0219   33.5029  107.7852 H        73        0    0.0000
    443 H          80.6644   33.1693  110.3445 H        73        0    0.0000
    444 H          80.9548   34.8168  109.7972 H        73        0    0.0000
    445 C          78.8917   34.4432  110.4084 C.3      74        0    0.0000
    446 C          79.0534   34.7650  111.8981 C.3      74        0    0.0000
    447 H          78.5160   35.3234  109.8720 H        74        0    0.0000
    448 H          78.1457   33.6501  110.2737 H        74        0    0.0000
    449 H          79.6785   35.6577  112.0244 H        74        0    0.0000
    450 H          78.0771   34.9989  112.3406 H        74        0    0.0000
    451 C          79.6986   33.5795  112.6954 C.3      75        0    0.0000
    452 C          80.0243   33.9625  114.1433 C.3      75        0    0.0000
    453 H          79.0101   32.7256  112.6780 H        75        0    0.0000
    454 H          80.6107   33.2595  112.1767 H        75        0    0.0000
    455 H          80.2299   33.0610  114.7337 H        75        0    0.0000
    456 H          80.9345   34.5741  114.1749 H        75        0    0.0000
    457 C          78.8575   34.7574  114.8245 C.3      76        0    0.0000
    458 C          79.1180   35.0092  116.3137 C.3      76        0    0.0000
    459 H          78.7256   35.7114  114.2991 H        76        0    0.0000
    460 H          77.9243   34.1952  114.6956 H        76        0    0.0000
    461 H          79.9699   35.6894  116.4367 H        76        0    0.0000
    462 H          78.2513   35.5044  116.7687 H        76        0    0.0000
    463 C          79.4122   33.6840  117.0977 C.3      77        0    0.0000
    464 C          79.8415   33.9485  118.5450 C.3      77        0    0.0000
    465 H          78.5127   33.0562  117.0809 H        77        0    0.0000
    466 H          80.1953   33.1267  116.5689 H        77        0    0.0000
    467 H          79.2882   33.2916  119.2276 H        77        0    0.0000
    468 H          80.9049   33.7103  118.6715 H        77        0    0.0000
    469 C          79.6030   35.4377  118.9728 C.3      78        0    0.0000
    470 C          80.0826   35.7155  120.4017 C.3      78        0    0.0000
    471 H          80.1237   36.0962  118.2666 H        78        0    0.0000
    472 H          78.5332   35.6640  118.8844 H        78        0    0.0000
    473 H          80.8873   36.4611  120.3902 H        78        0    0.0000
    474 H          79.2656   36.1429  120.9963 H        78        0    0.0000
    475 C          80.6035   34.4209  121.1159 C.3      79        0    0.0000
    476 C          80.7113   34.5985  122.6343 C.3      79        0    0.0000
    477 H          79.9257   33.5907  120.8814 H        79        0    0.0000
    478 H          81.5825   34.1560  120.6976 H        79        0    0.0000
    479 H          81.0838   33.6754  123.0955 H        79        0    0.0000
    480 H          81.4393   35.3846  122.8704 H        79        0    0.0000
    481 C          79.3360   34.9706  123.2881 C.3      80        0    0.0000
    482 C          78.9922   34.0630  124.4744 C.3      80        0    0.0000
    483 H          79.3709   36.0177  123.6134 H        80        0    0.0000
    484 H          78.5517   34.9041  122.5239 H        80        0    0.0000
    485 H          78.9573   33.0159  124.1491 H        80        0    0.0000
    486 H          79.7765   34.1295  125.2386 H        80        0    0.0000
    487 H          78.0359   34.3217  124.9289 H        80        0    0.0000
    488 H         119.2798    1.2287  -40.4349 H         0        0    0.0000
@<TRIPOS>BOND
     1     1     2      1
     2     1     3      1
     3     1     4      1
     4     1   488      H
     5     2     5      1
     6     2     6      1
     7     2     7      1
     8     7     8      1
     9     7     9      1
    10     7    10      1
    11     8    11      1
    12     8    12      1
    13     8    13      1
    14    13    14      1
    15    13    15      1
    16    13    16      1
    17    14    17      1
    18    14    18      1
    19    14    19      1
    20    19    20      1
    21    19    21      1
    22    19    22      1
    23    20    23      1
    24    20    24      1
    25    20    25      1
    26    25    26      1
    27    25    27      1
    28    25    28      1
    29    26    29      1
    30    26    30      1
    31    26    31      1
    32    31    32      1
    33    31    33      1
    34    31    34      1
    35    32    35      1
    36    32    36      1
    37    32    37      1
    38    37    38      1
    39    37    39      1
    40    37    40      1
    41    38    41      1
    42    38    42      1
    43    38    43      1
    44    43    44      1
    45    43    45      1
    46    43    46      1
    47    44    47      1
    48    44    48      1
    49    44    49      1
    50    49    50      1
    51    49    51      1
    52    49    52      1
    53    50    53      1
    54    50    54      1
    55    50    55      1
    56    55    56      1
    57    55    57      1
    58    55    58      1
    59    56    59      1
    60    56    60      1
    61    56    61      1
    62    61    62      1
    63    61    63      1
    64    61    64      1
    65    62    65      1
    66    62    66      1
    67    62    67      1
    68    67    68      1
    69    67    69      1
    70    67    70      1
    71    68    71      1
    72    68    72      1
    73    68    73      1
    74    73    74      1
    75    73    75      1
    76    73    76      1
    77    74    77      1
    78    74    78      1
    79    74    79      1
    80    79    80      1
    81    79    81      1
    82    79    82      1
    83    80    83      1
    84    80    84      1
    85    80    85      1
    86    85    86      1
    87    85    87      1
    88    85    88      1
    89    86    89      1
    90    86    90      1
    91    86    91      1
    92    91    92      1
    93    91    93      1
    94    91    94      1
    95    92    95      1
    96    92    96      1
    97    92    97      1
    98    97    98      1
    99    97    99      1
   100    97   100      1
   101    98   101      1
   102    98   102      1
   103    98   103      1
   104   103   104      1
   105   103   105      1
   106   103   106      1
   107   104   107      1
   108   104   108      1
   109   104   109      1
   110   109   110      1
   111   109   111      1
   112   109   112      1
   113   110   113      1
   114   110   114      1
   115   110   115      1
   116   115   116      1
   117   115   117      1
   118   115   118      1
   119   116   119      1
   120   116   120      1
   121   116   121      1
   122   121   122      1
   123   121   123      1
   124   121   124      1
   125   122   125      1
   126   122   126      1
   127   122   127      1
   128   127   128      1
   129   127   129      1
   130   127   130      1
   131   128   131      1
   132   128   132      1
   133   128   133      1
   134   133   134      1
   135   133   135      1
   136   133   136      1
   137   134   137      1
   138   134   138      1
   139   134   139      1
   140   139   140      1
   141   139   141      1
   142   139   142      1
   143   140   143      1
   144   140   144      1
   145   140   145      1
   146   145   146      1
   147   145   147      1
   148   145   148      1
   149   146   149      1
   150   146   150      1
   151   146   151      1
   152   151   152      1
   153   151   153      1
   154   151   154      1
   155   152   155      1
   156   152   156      1
   157   152   157      1
   158   157   158      1
   159   157   159      1
   160   157   160      1
   161   158   161      1
   162   158   162      1
   163   158   163      1
   164   163   164      1
   165   163   165      1
   166   163   166      1
   167   164   167      1
   168   164   168      1
   169   164   169      1
   170   169   170      1
   171   169   171      1
   172   169   172      1
   173   170   173      1
   174   170   174      1
   175   170   175      1
   176   175   176      1
   177   175   177      1
   178   175   178      1
   179   176   179      1
   180   176   180      1
   181   176   181      1
   182   181   182      1
   183   181   183      1
   184   181   184      1
   185   182   185      1
   186   182   186      1
   187   182   187      1
   188   187   188      1
   189   187   189      1
   190   187   190      1
   191   188   191      1
   192   188   192      1
   193   188   193      1
   194   193   194      1
   195   193   195      1
   196   193   196      1
   197   194   197      1
   198   194   198      1
   199   194   199      1
   200   199   200      1
   201   199   201      1
   202   199   202      1
   203   200   203      1
   204   200   204      1
   205   200   205      1
   206   205   206      1
   207   205   207      1
   208   205   208      1
   209   206   209      1
   210   206   210      1
   211   206   211      1
   212   211   212      1
   213   211   213      1
   214   211   214      1
   215   212   215      1
   216   212   216      1
   217   212   217      1
   218   217   218      1
   219   217   219      1
   220   217   220      1
   221   218   221      1
   222   218   222      1
   223   218   223      1
   224   223   224      1
   225   223   225      1
   226   223   226      1
   227   224   227      1
   228   224   228      1
   229   224   229      1
   230   229   230      1
   231   229   231      1
   232   229   232      1
   233   230   233      1
   234   230   234      1
   235   230   235      1
   236   235   236      1
   237   235   237      1
   238   235   238      1
   239   236   239      1
   240   236   240      1
   241   236   241      1
   242   241   242      1
   243   241   243      1
   244   241   244      1
   245   242   245      1
   246   242   246      1
   247   242   247      1
   248   247   248      1
   249   247   249      1
   250   247   250      1
   251   248   251      1
   252   248   252      1
   253   248   253      1
   254   253   254      1
   255   253   255      1
   256   253   256      1
   257   254   257      1
   258   254   258      1
   259   254   259      1
   260   259   260      1
   261   259   261      1
   262   259   262      1
   263   260   263      1
   264   260   264      1
   265   260   265      1
   266   265   266      1
   267   265   267      1
   268   265   268      1
   269   266   269      1
   270   266   270      1
   271   266   271      1
   272   271   272      1
   273   271   273      1
   274   271   274      1
   275   272   275      1
   276   272   276      1
   277   272   277      1
   278   277   278      1
   279   277   279      1
   280   277   280      1
   281   278   281      1
   282   278   282      1
   283   278   283      1
   284   283   284      1
   285   283   285      1
   286   283   286      1
   287   284   287      1
   288   284   288      1
   289   284   289      1
   290   289   290      1
   291   289   291      1
   292   289   292      1
   293   290   293      1
   294   290   294      1
   295   290   295      1
   296   295   296      1
   297   295   297      1
   298   295   298      1
   299   296   299      1
   300   296   300      1
   301   296   301      1
   302   301   302      1
   303   301   303      1
   304   301   304      1
   305   302   305      1
   306   302   306      1
   307   302   307      1
   308   307   308      1
   309   307   309      1
   310   307   310      1
   311   308   311      1
   312   308   312      1
   313   308   313      1
   314   313   314      1
   315   313   315      1
   316   313   316      1
   317   314   317      1
   318   314   318      1
   319   314   319      1
   320   319   320      1
   321   319   321      1
   322   319   322      1
   323   320   323      1
   324   320   324      1
   325   320   325      1
   326   325   326      1
   327   325   327      1
   328   325   328      1
   329   326   329      1
   330   326   330      1
   331   326   331      1
   332   331   332      1
   333   331   333      1
   334   331   334      1
   335   332   335      1
   336   332   336      1
   337   332   337      1
   338   337   338      1
   339   337   339      1
   340   337   340      1
   341   338   341      1
   342   338   342      1
   343   338   343      1
   344   343   344      1
   345   343   345      1
   346   343   346      1
   347   344   347      1
   348   344   348      1
   349   344   349      1
   350   349   350      1
   351   349   351      1
   352   349   352      1
   353   350   353      1
   354   350   354      1
   355   350   355      1
   356   355   356      1
   357   355   357      1
   358   355   358      1
   359   356   359      1
   360   356   360      1
   361   356   361      1
   362   361   362      1
   363   361   363      1
   364   361   364      1
   365   362   365      1
   366   362   366      1
   367   362   367      1
   368   367   368      1
   369   367   369      1
   370   367   370      1
   371   368   371      1
   372   368   372      1
   373   368   373      1
   374   373   374      1
   375   373   375      1
   376   373   376      1
   377   374   377      1
   378   374   378      1
   379   374   379      1
   380   379   380      1
   381   379   381      1
   382   379   382      1
   383   380   383      1
   384   380   384      1
   385   380   385      1
   386   385   386      1
   387   385   387      1
   388   385   388      1
   389   386   389      1
   390   386   390      1
   391   386   391      1
   392   391   392      1
   393   391   393      1
   394   391   394      1
   395   392   395      1
   396   392   396      1
   397   392   397      1
   398   397   398      1
   399   397   399      1
   400   397   400      1
   401   398   401      1
   402   398   402      1
   403   398   403      1
   404   403   404      1
   405   403   405      1
   406   403   406      1
   407   404   407      1
   408   404   408      1
   409   404   409      1
   410   409   410      1
   411   409   411      1
   412   409   412      1
   413   410   413      1
   414   410   414      1
   415   410   415      1
   416   415   416      1
   417   415   417      1
   418   415   418      1
   419   416   419      1
   420   416   420      1
   421   416   421      1
   422   421   422      1
   423   421   423      1
   424   421   424      1
   425   422   425      1
   426   422   426      1
   427   422   427      1
   428   427   428      1
   429   427   429      1
   430   427   430      1
   431   428   431      1
   432   428   432      1
   433   428   433      1
   434   433   434      1
   435   433   435      1
   436   433   436      1
   437   434   437      1
   438   434   438      1
   439   434   439      1
   440   439   440      1
   441   439   441      1
   442   439   442      1
   443   440   443      1
   444   440   444      1
   445   440   445      1
   446   445   446      1
   447   445   447      1
   448   445   448      1
   449   446   449      1
   450   446   450      1
   451   446   451      1
   452   451   452      1
   453   451   453      1
   454   451   454      1
   455   452   455      1
   456   452   456      1
   457   452   457      1
   458   457   458      1
   459   457   459      1
   460   457   460      1
   461   458   461      1
   462   458   462      1
   463   458   463      1
   464   463   464      1
   465   463   465      1
   466   463   466      1
   467   464   467      1
   468   464   468      1
   469   464   469      1
   470   469   470      1
   471   469   471      1
   472   469   472      1
   473   470   473      1
   474   470   474      1
   475   470   475      1
   476   475   476      1
   477   475   477      1
   478   475   478      1
   479   476   479      1
   480   476   480      1
   481   476   481      1
   482   481   482      1
   483   481   483      1
   484   481   484      1
   485   482   485      1
   486   482   486      1
   487   482   487      H
