###
### Created by PolyChef-cpp17 on Thu Feb 27 19:40:28 2025
###

@<TRIPOS>MOLECULE
NO_INFO
296 295 1 0 0
SMALL
USER_CHARGES


@<TRIPOS>ATOM
      1 C         169.2798   87.8287  -39.3449 C.3       0        0    0.0000
      2 C         167.8706   87.6682  -38.7641 C.3       0        0    0.0000
      3 H         169.9271   87.0166  -38.9913 H         0        0    0.0000
      4 H         169.7280   88.7655  -38.9913 H         0        0    0.0000
      5 H         167.3716   88.6438  -38.7125 H         0        0    0.0000
      6 H         167.2616   87.0374  -39.4234 H         0        0    0.0000
      7 C         167.8875   87.0329  -37.3311 C.3       1        0    0.0000
      8 C         169.1645   87.3787  -36.5574 C.3       1        0    0.0000
      9 H         167.0066   87.3829  -36.7787 H         1        0    0.0000
     10 H         167.7880   85.9445  -37.4256 H         1        0    0.0000
     11 H         170.0451   87.2054  -37.1883 H         1        0    0.0000
     12 H         169.1691   88.4442  -36.2960 H         1        0    0.0000
     13 C         169.3101   86.5356  -35.2439 C.3       2        0    0.0000
     14 C         170.2050   87.2244  -34.2077 C.3       2        0    0.0000
     15 H         168.3121   86.3618  -34.8228 H         2        0    0.0000
     16 H         169.7200   85.5506  -35.4995 H         2        0    0.0000
     17 H         171.2599   87.1104  -34.4865 H         2        0    0.0000
     18 H         169.9987   88.3018  -34.1893 H         2        0    0.0000
     19 C         169.9982   86.6457  -32.7655 C.3       3        0    0.0000
     20 C         170.6083   87.5458  -31.6854 C.3       3        0    0.0000
     21 H         168.9234   86.5186  -32.5863 H         3        0    0.0000
     22 H         170.4459   85.6452  -32.7184 H         3        0    0.0000
     23 H         171.6971   87.5974  -31.8096 H         3        0    0.0000
     24 H         170.2303   88.5702  -31.7918 H         3        0    0.0000
     25 C         170.2884   87.0369  -30.2376 C.3       4        0    0.0000
     26 C         170.8736   87.9532  -29.1573 C.3       4        0    0.0000
     27 H         169.2000   86.9649  -30.1206 H         4        0    0.0000
     28 H         170.6853   86.0205  -30.1243 H         4        0    0.0000
     29 H         171.9627   88.0208  -29.2710 H         4        0    0.0000
     30 H         170.4809   88.9709  -29.2741 H         4        0    0.0000
     31 C         170.5470   87.4486  -27.7095 C.3       5        0    0.0000
     32 C         171.1359   88.3625  -26.6292 C.3       5        0    0.0000
     33 H         169.4579   87.3839  -27.5948 H         5        0    0.0000
     34 H         170.9370   86.4297  -27.5938 H         5        0    0.0000
     35 H         172.2248   88.4290  -26.7453 H         5        0    0.0000
     36 H         170.7441   89.3808  -26.7435 H         5        0    0.0000
     37 C         170.8121   87.8561  -25.1814 C.3       6        0    0.0000
     38 C         171.3744   88.7868  -24.1012 C.3       6        0    0.0000
     39 H         169.7240   87.7678  -25.0728 H         6        0    0.0000
     40 H         171.2238   86.8465  -25.0596 H         6        0    0.0000
     41 H         172.4628   88.8731  -24.2084 H         6        0    0.0000
     42 H         170.9646   89.7970  -24.2246 H         6        0    0.0000
     43 C         171.0475   88.2822  -22.6535 C.3       7        0    0.0000
     44 C         172.0883   88.7455  -21.6281 C.3       7        0    0.0000
     45 H         170.0519   88.6448  -22.3690 H         7        0    0.0000
     46 H         170.9924   87.1866  -22.6648 H         7        0    0.0000
     47 H         173.0959   88.4726  -21.9653 H         7        0    0.0000
     48 H         172.0704   89.8390  -21.5418 H         7        0    0.0000
     49 C         171.8438   88.1226  -20.2105 C.3       8        0    0.0000
     50 C         171.7854   89.1879  -19.1102 C.3       8        0    0.0000
     51 H         170.9071   87.5520  -20.2317 H         8        0    0.0000
     52 H         172.6453   87.4046  -19.9968 H         8        0    0.0000
     53 H         172.8006   89.4961  -18.8307 H         8        0    0.0000
     54 H         171.2749   90.0850  -19.4818 H         8        0    0.0000
     55 C         171.0414   88.6777  -17.8282 C.3       9        0    0.0000
     56 C         171.9131   88.7791  -16.5716 C.3       9        0    0.0000
     57 H         170.1223   89.2621  -17.6966 H         9        0    0.0000
     58 H         170.7328   87.6373  -17.9889 H         9        0    0.0000
     59 H         172.9422   88.4772  -16.8023 H         9        0    0.0000
     60 H         171.9595   89.8203  -16.2290 H         9        0    0.0000
     61 C         171.3747   87.8857  -15.4014 C.3      10        0    0.0000
     62 C         171.6419   88.5070  -14.0260 C.3      10        0    0.0000
     63 H         170.2977   87.7308  -15.5414 H        10        0    0.0000
     64 H         171.8461   86.8972  -15.4655 H        10        0    0.0000
     65 H         172.7197   88.5192  -13.8217 H        10        0    0.0000
     66 H         171.3071   89.5517  -14.0137 H        10        0    0.0000
     67 C         170.9177   87.7307  -12.8726 C.3      11        0    0.0000
     68 C         171.3501   88.2165  -11.4847 C.3      11        0    0.0000
     69 H         169.8337   87.8503  -12.9921 H        11        0    0.0000
     70 H         171.1302   86.6598  -12.9794 H        11        0    0.0000
     71 H         172.4392   88.1363  -11.3806 H        11        0    0.0000
     72 H         171.0992   89.2775  -11.3625 H        11        0    0.0000
     73 C         170.6707   87.4006  -10.3314 C.3      12        0    0.0000
     74 C         171.0925   87.8952   -8.9435 C.3      12        0    0.0000
     75 H         169.5815   87.4725  -10.4415 H        12        0    0.0000
     76 H         170.9297   86.3409  -10.4479 H        12        0    0.0000
     77 H         172.1810   87.8179   -8.8313 H        12        0    0.0000
     78 H         170.8386   88.9564   -8.8292 H        12        0    0.0000
     79 C         170.4068   87.0846   -7.7901 C.3      13        0    0.0000
     80 C         170.8423   87.5676   -6.4023 C.3      13        0    0.0000
     81 H         169.3183   87.1728   -7.8946 H        13        0    0.0000
     82 H         170.6499   86.0218   -7.9120 H        13        0    0.0000
     83 H         171.9319   87.4884   -6.3012 H        13        0    0.0000
     84 H         170.5905   88.6279   -6.2769 H        13        0    0.0000
     85 C         170.1671   86.7481   -5.2491 C.3      14        0    0.0000
     86 C         170.6547   87.1852   -3.8634 C.3      14        0    0.0000
     87 H         169.0789   86.8683   -5.3201 H        14        0    0.0000
     88 H         170.3770   85.6823   -5.4028 H        14        0    0.0000
     89 H         171.7486   87.1199   -3.8116 H        14        0    0.0000
     90 H         170.3931   88.2358   -3.6866 H        14        0    0.0000
     91 C         170.0415   86.3118   -2.7150 C.3      15        0    0.0000
     92 C         170.4270   86.8274   -1.3241 C.3      15        0    0.0000
     93 H         168.9499   86.3013   -2.8231 H        15        0    0.0000
     94 H         170.3803   85.2758   -2.8393 H        15        0    0.0000
     95 H         171.4642   86.5529   -1.0953 H        15        0    0.0000
     96 H         170.3790   87.9232   -1.3025 H        15        0    0.0000
     97 C         169.4941   86.2585   -0.2000 C.3      16        0    0.0000
     98 C         169.7401   86.9315    1.1548 C.3      16        0    0.0000
     99 H         168.4492   86.3964   -0.5043 H        16        0    0.0000
    100 H         169.6582   85.1769   -0.1181 H        16        0    0.0000
    101 H         170.5664   86.4339    1.6775 H        16        0    0.0000
    102 H         170.0441   87.9751    1.0067 H        16        0    0.0000
    103 C         168.4699   86.9006    2.0729 C.3      17        0    0.0000
    104 C         168.7140   87.5790    3.4254 C.3      17        0    0.0000
    105 H         167.6424   87.3942    1.5484 H        17        0    0.0000
    106 H         168.1686   85.8567    2.2247 H        17        0    0.0000
    107 H         169.1034   86.8502    4.1470 H        17        0    0.0000
    108 H         169.4782   88.3594    3.3222 H        17        0    0.0000
    109 C         167.4102   88.2230    4.0110 C.3      18        0    0.0000
    110 C         167.6468   88.8716    5.3793 C.3      18        0    0.0000
    111 H         167.0348   88.9698    3.3005 H        18        0    0.0000
    112 H         166.6380   87.4478    4.0906 H        18        0    0.0000
    113 H         166.7758   89.4740    5.6657 H        18        0    0.0000
    114 H         167.7608   88.0973    6.1480 H        18        0    0.0000
    115 C         168.9198   89.7864    5.3910 C.3      19        0    0.0000
    116 C         169.1291   90.4732    6.7451 C.3      19        0    0.0000
    117 H         169.7961   89.1763    5.1392 H        19        0    0.0000
    118 H         168.8217   90.5389    4.5987 H        19        0    0.0000
    119 H         169.4294   89.7349    7.4989 H        19        0    0.0000
    120 H         169.9461   91.2020    6.6749 H        19        0    0.0000
    121 C         167.8377   91.2085    7.2442 C.3      20        0    0.0000
    122 C         167.9574   91.6679    8.7015 C.3      20        0    0.0000
    123 H         167.6472   92.0702    6.5926 H        20        0    0.0000
    124 H         166.9805   90.5331    7.1320 H        20        0    0.0000
    125 H         168.0879   90.8001    9.3600 H        20        0    0.0000
    126 H         168.8490   92.2948    8.8262 H        20        0    0.0000
    127 C         166.7007   92.4767    9.1746 C.3      21        0    0.0000
    128 C         167.0816   93.7162    9.9918 C.3      21        0    0.0000
    129 H         166.1177   92.7717    8.2934 H        21        0    0.0000
    130 H         166.0587   91.8161    9.7703 H        21        0    0.0000
    131 H         167.2989   93.4310   11.0286 H        21        0    0.0000
    132 H         167.9984   94.1647    9.5897 H        21        0    0.0000
    133 C         165.9477   94.7987    9.9926 C.3      22        0    0.0000
    134 C         166.5021   96.2205   10.1347 C.3      22        0    0.0000
    135 H         165.3736   94.7101    9.0620 H        22        0    0.0000
    136 H         165.2527   94.5822   10.8133 H        22        0    0.0000
    137 H         166.9156   96.3642   11.1406 H        22        0    0.0000
    138 H         167.3284   96.3742    9.4295 H        22        0    0.0000
    139 C         165.4081   97.3133    9.8772 C.3      23        0    0.0000
    140 C         165.9342   98.4720    9.0230 C.3      23        0    0.0000
    141 H         164.5478   96.8433    9.3847 H        23        0    0.0000
    142 H         165.0506   97.6903   10.8434 H        23        0    0.0000
    143 H         166.6182   99.0942    9.6133 H        23        0    0.0000
    144 H         166.5135   98.0826    8.1767 H        23        0    0.0000
    145 C         164.7783   99.3757    8.4709 C.3      24        0    0.0000
    146 C         165.0059   99.7824    7.0109 C.3      24        0    0.0000
    147 H         163.8292   98.8338    8.5670 H        24        0    0.0000
    148 H         164.6961  100.2693    9.1019 H        24        0    0.0000
    149 H         165.8384  100.4937    6.9439 H        24        0    0.0000
    150 H         165.2918   98.9058    6.4164 H        24        0    0.0000
    151 C         163.7320  100.4337    6.3701 C.3      25        0    0.0000
    152 C         164.0707  101.2859    5.1420 C.3      25        0    0.0000
    153 H         163.0291   99.6381    6.0937 H        25        0    0.0000
    154 H         163.2301  101.0484    7.1276 H        25        0    0.0000
    155 H         164.7896  102.0687    5.4140 H        25        0    0.0000
    156 H         164.5540  100.6666    4.3762 H        25        0    0.0000
    157 C         162.8005  101.9607    4.5186 C.3      26        0    0.0000
    158 C         162.9986  102.3183    3.0415 C.3      26        0    0.0000
    159 H         161.9477  101.2796    4.6296 H        26        0    0.0000
    160 H         162.5604  102.8627    5.0951 H        26        0    0.0000
    161 H         163.7681  103.0940    2.9422 H        26        0    0.0000
    162 H         163.3603  101.4431    2.4878 H        26        0    0.0000
    163 C         161.6767  102.8293    2.3714 C.3      27        0    0.0000
    164 C         161.8716  103.1740    0.8908 C.3      27        0    0.0000
    165 H         160.9044  102.0576    2.4794 H        27        0    0.0000
    166 H         161.3204  103.7105    2.9191 H        27        0    0.0000
    167 H         162.6142  103.9747    0.7856 H        27        0    0.0000
    168 H         162.2671  102.3047    0.3510 H        27        0    0.0000
    169 C         160.5370  103.6296    0.2062 C.3      28        0    0.0000
    170 C         160.7001  103.8376   -1.3035 C.3      28        0    0.0000
    171 H         159.7645  102.8754    0.4007 H        28        0    0.0000
    172 H         160.1962  104.5589    0.6793 H        28        0    0.0000
    173 H         161.3349  104.7113   -1.4964 H        28        0    0.0000
    174 H         161.2089  102.9739   -1.7493 H        28        0    0.0000
    175 C         159.3247  104.0427   -2.0270 C.3      29        0    0.0000
    176 C         159.4721  104.0925   -3.5517 C.3      29        0    0.0000
    177 H         158.6495  103.2267   -1.7408 H        29        0    0.0000
    178 H         158.8685  104.9714   -1.6626 H        29        0    0.0000
    179 H         158.4841  104.1644   -4.0230 H        29        0    0.0000
    180 H         160.0280  104.9911   -3.8467 H        29        0    0.0000
    181 C         160.2118  102.8320   -4.1186 C.3      30        0    0.0000
    182 C         160.4108  102.9089   -5.6363 C.3      30        0    0.0000
    183 H         161.1824  102.7359   -3.6164 H        30        0    0.0000
    184 H         159.6333  101.9364   -3.8600 H        30        0    0.0000
    185 H         161.4814  102.9245   -5.8751 H        30        0    0.0000
    186 H         159.9940  102.0147   -6.1162 H        30        0    0.0000
    187 C         159.7354  104.1785   -6.2604 C.3      31        0    0.0000
    188 C         159.8382  104.1987   -7.7895 C.3      31        0    0.0000
    189 H         158.6824  104.2058   -5.9538 H        31        0    0.0000
    190 H         160.2093  105.0740   -5.8397 H        31        0    0.0000
    191 H         159.2745  105.0490   -8.1932 H        31        0    0.0000
    192 H         160.8825  104.3398   -8.0945 H        31        0    0.0000
    193 C         159.2960  102.8789   -8.4389 C.3      32        0    0.0000
    194 C         159.4453  102.8782   -9.9643 C.3      32        0    0.0000
    195 H         159.8344  102.0257   -8.0079 H        32        0    0.0000
    196 H         158.2410  102.7571   -8.1641 H        32        0    0.0000
    197 H         160.1089  102.0625  -10.2769 H        32        0    0.0000
    198 H         158.4731  102.6923  -10.4373 H        32        0    0.0000
    199 C         160.0198  104.2326  -10.5056 C.3      33        0    0.0000
    200 C         160.1203  104.2510  -12.0348 C.3      33        0    0.0000
    201 H         159.3771  105.0523  -10.1610 H        33        0    0.0000
    202 H         161.0089  104.3999  -10.0615 H        33        0    0.0000
    203 H         160.4027  105.2530  -12.3812 H        33        0    0.0000
    204 H         160.9115  103.5680  -12.3680 H        33        0    0.0000
    205 C         158.7738  103.8391  -12.7238 C.3      34        0    0.0000
    206 C         158.9097  103.7316  -14.2466 C.3      34        0    0.0000
    207 H         158.4424  102.8799  -12.3070 H        34        0    0.0000
    208 H         158.0044  104.5773  -12.4659 H        34        0    0.0000
    209 H         158.8061  102.6855  -14.5606 H        34        0    0.0000
    210 H         158.1018  104.2890  -14.7366 H        34        0    0.0000
    211 C         160.2855  104.2796  -14.7605 C.3      35        0    0.0000
    212 C         160.4274  104.1585  -16.2818 C.3      35        0    0.0000
    213 H         160.3843  105.3288  -14.4559 H        35        0    0.0000
    214 H         161.0936  103.7295  -14.2624 H        35        0    0.0000
    215 H         161.3139  104.7080  -16.6219 H        35        0    0.0000
    216 H         160.5802  103.1091  -16.5630 H        35        0    0.0000
    217 C         159.1705  104.7072  -17.0412 C.3      36        0    0.0000
    218 C         159.2428  104.4447  -18.5495 C.3      36        0    0.0000
    219 H         158.2714  104.2400  -16.6207 H        36        0    0.0000
    220 H         159.0845  105.7841  -16.8505 H        36        0    0.0000
    221 H         158.4966  103.6936  -18.8368 H        36        0    0.0000
    222 H         158.9978  105.3599  -19.1028 H        36        0    0.0000
    223 C         160.6597  103.9468  -18.9987 C.3      37        0    0.0000
    224 C         160.7466  103.7319  -20.5137 C.3      37        0    0.0000
    225 H         161.4101  104.6806  -18.6792 H        37        0    0.0000
    226 H         160.8893  103.0120  -18.4724 H        37        0    0.0000
    227 H         161.4954  104.4065  -20.9470 H        37        0    0.0000
    228 H         161.0807  102.7096  -20.7301 H        37        0    0.0000
    229 C         159.3727  103.9763  -21.2281 C.3      38        0    0.0000
    230 C         159.5015  103.9615  -22.7553 C.3      38        0    0.0000
    231 H         158.6631  103.2055  -20.9030 H        38        0    0.0000
    232 H         158.9669  104.9393  -20.8942 H        38        0    0.0000
    233 H         158.6971  103.3587  -23.1948 H        38        0    0.0000
    234 H         159.3865  104.9777  -23.1523 H        38        0    0.0000
    235 C         160.8806  103.3867  -23.2297 C.3      39        0    0.0000
    236 C         161.0289  103.4173  -24.7549 C.3      39        0    0.0000
    237 H         161.6854  103.9670  -22.7618 H        39        0    0.0000
    238 H         160.9798  102.3576  -22.8627 H        39        0    0.0000
    239 H         161.8694  104.0629  -25.0382 H        39        0    0.0000
    240 H         161.2623  102.4133  -25.1303 H        39        0    0.0000
    241 C         159.7320  103.9344  -25.4677 C.3      40        0    0.0000
    242 C         159.8768  103.9556  -26.9933 C.3      40        0    0.0000
    243 H         158.8900  103.2932  -25.1786 H        40        0    0.0000
    244 H         159.5027  104.9414  -25.0975 H        40        0    0.0000
    245 H         159.4426  104.8775  -27.3996 H        40        0    0.0000
    246 H         160.9383  103.9585  -27.2704 H        40        0    0.0000
    247 C         159.1805  102.7266  -27.6733 C.3      41        0    0.0000
    248 C         159.2933  102.7672  -29.2012 C.3      41        0    0.0000
    249 H         159.6335  101.8052  -27.2870 H        41        0    0.0000
    250 H         158.1251  102.7082  -27.3744 H        41        0    0.0000
    251 H         159.7436  101.8373  -29.5700 H        41        0    0.0000
    252 H         158.2947  102.8335  -29.6505 H        41        0    0.0000
    253 C         160.1539  103.9783  -29.7014 C.3      42        0    0.0000
    254 C         160.1646  104.0912  -31.2299 C.3      42        0    0.0000
    255 H         159.7573  104.9006  -29.2589 H        42        0    0.0000
    256 H         161.1781  103.8636  -29.3255 H        42        0    0.0000
    257 H         159.6316  104.9972  -31.5440 H        42        0    0.0000
    258 H         161.1953  104.1904  -31.5925 H        42        0    0.0000
    259 C         159.5027  102.8501  -31.9220 C.3      43        0    0.0000
    260 C         159.5171  102.9611  -33.4505 C.3      43        0    0.0000
    261 H         160.0339  101.9438  -31.6056 H        43        0    0.0000
    262 H         158.4712  102.7526  -31.5616 H        43        0    0.0000
    263 H         160.0596  102.1120  -33.8843 H        43        0    0.0000
    264 H         158.4930  102.9131  -33.8408 H        43        0    0.0000
    265 C         160.1838  104.2916  -33.9433 C.3      44        0    0.0000
    266 C         160.2266  104.3882  -35.4723 C.3      44        0    0.0000
    267 H         159.6271  105.1409  -33.5282 H        44        0    0.0000
    268 H         161.1999  104.3507  -33.5340 H        44        0    0.0000
    269 H         160.5214  105.4000  -35.7772 H        44        0    0.0000
    270 H         160.9866  103.7050  -35.8712 H        44        0    0.0000
    271 C         158.8447  104.0453  -36.1283 C.3      45        0    0.0000
    272 C         158.9537  103.8517  -37.6447 C.3      45        0    0.0000
    273 H         158.4472  103.1361  -35.6605 H        45        0    0.0000
    274 H         158.1361  104.8517  -35.9019 H        45        0    0.0000
    275 H         158.9169  102.7833  -37.8911 H        45        0    0.0000
    276 H         158.0979  104.3203  -38.1462 H        45        0    0.0000
    277 C         160.2758  104.4594  -38.2278 C.3      46        0    0.0000
    278 C         160.4164  104.2076  -39.7331 C.3      46        0    0.0000
    279 H         160.2896  105.5373  -38.0238 H        46        0    0.0000
    280 H         161.1301  104.0266  -37.6926 H        46        0    0.0000
    281 H         159.6743  104.7984  -40.2842 H        46        0    0.0000
    282 H         161.4032  104.5392  -40.0794 H        46        0    0.0000
    283 C         160.2334  102.6951  -40.1021 C.3      47        0    0.0000
    284 C         160.1295  102.4748  -41.6152 C.3      47        0    0.0000
    285 H         161.0800  102.1272  -39.6965 H        47        0    0.0000
    286 H         159.3324  102.3161  -39.6040 H        47        0    0.0000
    287 H         160.7298  101.6055  -41.9109 H        47        0    0.0000
    288 H         159.0920  102.2502  -41.8923 H        47        0    0.0000
    289 C         160.6116  103.7231  -42.4318 C.3      48        0    0.0000
    290 C         160.4100  103.5435  -43.9405 C.3      48        0    0.0000
    291 H         160.0645  104.6073  -42.0819 H        48        0    0.0000
    292 H         161.6716  103.9012  -42.2125 H        48        0    0.0000
    293 H         160.9570  102.6592  -44.2905 H        48        0    0.0000
    294 H         159.3499  103.3653  -44.1598 H        48        0    0.0000
    295 H         160.7452  104.4114  -44.5083 H        48        0    0.0000
    296 H         169.2798   87.8287  -40.4349 H         0        0    0.0000
@<TRIPOS>BOND
     1     1     2      1
     2     1     3      1
     3     1     4      1
     4     1   296      H
     5     2     5      1
     6     2     6      1
     7     2     7      1
     8     7     8      1
     9     7     9      1
    10     7    10      1
    11     8    11      1
    12     8    12      1
    13     8    13      1
    14    13    14      1
    15    13    15      1
    16    13    16      1
    17    14    17      1
    18    14    18      1
    19    14    19      1
    20    19    20      1
    21    19    21      1
    22    19    22      1
    23    20    23      1
    24    20    24      1
    25    20    25      1
    26    25    26      1
    27    25    27      1
    28    25    28      1
    29    26    29      1
    30    26    30      1
    31    26    31      1
    32    31    32      1
    33    31    33      1
    34    31    34      1
    35    32    35      1
    36    32    36      1
    37    32    37      1
    38    37    38      1
    39    37    39      1
    40    37    40      1
    41    38    41      1
    42    38    42      1
    43    38    43      1
    44    43    44      1
    45    43    45      1
    46    43    46      1
    47    44    47      1
    48    44    48      1
    49    44    49      1
    50    49    50      1
    51    49    51      1
    52    49    52      1
    53    50    53      1
    54    50    54      1
    55    50    55      1
    56    55    56      1
    57    55    57      1
    58    55    58      1
    59    56    59      1
    60    56    60      1
    61    56    61      1
    62    61    62      1
    63    61    63      1
    64    61    64      1
    65    62    65      1
    66    62    66      1
    67    62    67      1
    68    67    68      1
    69    67    69      1
    70    67    70      1
    71    68    71      1
    72    68    72      1
    73    68    73      1
    74    73    74      1
    75    73    75      1
    76    73    76      1
    77    74    77      1
    78    74    78      1
    79    74    79      1
    80    79    80      1
    81    79    81      1
    82    79    82      1
    83    80    83      1
    84    80    84      1
    85    80    85      1
    86    85    86      1
    87    85    87      1
    88    85    88      1
    89    86    89      1
    90    86    90      1
    91    86    91      1
    92    91    92      1
    93    91    93      1
    94    91    94      1
    95    92    95      1
    96    92    96      1
    97    92    97      1
    98    97    98      1
    99    97    99      1
   100    97   100      1
   101    98   101      1
   102    98   102      1
   103    98   103      1
   104   103   104      1
   105   103   105      1
   106   103   106      1
   107   104   107      1
   108   104   108      1
   109   104   109      1
   110   109   110      1
   111   109   111      1
   112   109   112      1
   113   110   113      1
   114   110   114      1
   115   110   115      1
   116   115   116      1
   117   115   117      1
   118   115   118      1
   119   116   119      1
   120   116   120      1
   121   116   121      1
   122   121   122      1
   123   121   123      1
   124   121   124      1
   125   122   125      1
   126   122   126      1
   127   122   127      1
   128   127   128      1
   129   127   129      1
   130   127   130      1
   131   128   131      1
   132   128   132      1
   133   128   133      1
   134   133   134      1
   135   133   135      1
   136   133   136      1
   137   134   137      1
   138   134   138      1
   139   134   139      1
   140   139   140      1
   141   139   141      1
   142   139   142      1
   143   140   143      1
   144   140   144      1
   145   140   145      1
   146   145   146      1
   147   145   147      1
   148   145   148      1
   149   146   149      1
   150   146   150      1
   151   146   151      1
   152   151   152      1
   153   151   153      1
   154   151   154      1
   155   152   155      1
   156   152   156      1
   157   152   157      1
   158   157   158      1
   159   157   159      1
   160   157   160      1
   161   158   161      1
   162   158   162      1
   163   158   163      1
   164   163   164      1
   165   163   165      1
   166   163   166      1
   167   164   167      1
   168   164   168      1
   169   164   169      1
   170   169   170      1
   171   169   171      1
   172   169   172      1
   173   170   173      1
   174   170   174      1
   175   170   175      1
   176   175   176      1
   177   175   177      1
   178   175   178      1
   179   176   179      1
   180   176   180      1
   181   176   181      1
   182   181   182      1
   183   181   183      1
   184   181   184      1
   185   182   185      1
   186   182   186      1
   187   182   187      1
   188   187   188      1
   189   187   189      1
   190   187   190      1
   191   188   191      1
   192   188   192      1
   193   188   193      1
   194   193   194      1
   195   193   195      1
   196   193   196      1
   197   194   197      1
   198   194   198      1
   199   194   199      1
   200   199   200      1
   201   199   201      1
   202   199   202      1
   203   200   203      1
   204   200   204      1
   205   200   205      1
   206   205   206      1
   207   205   207      1
   208   205   208      1
   209   206   209      1
   210   206   210      1
   211   206   211      1
   212   211   212      1
   213   211   213      1
   214   211   214      1
   215   212   215      1
   216   212   216      1
   217   212   217      1
   218   217   218      1
   219   217   219      1
   220   217   220      1
   221   218   221      1
   222   218   222      1
   223   218   223      1
   224   223   224      1
   225   223   225      1
   226   223   226      1
   227   224   227      1
   228   224   228      1
   229   224   229      1
   230   229   230      1
   231   229   231      1
   232   229   232      1
   233   230   233      1
   234   230   234      1
   235   230   235      1
   236   235   236      1
   237   235   237      1
   238   235   238      1
   239   236   239      1
   240   236   240      1
   241   236   241      1
   242   241   242      1
   243   241   243      1
   244   241   244      1
   245   242   245      1
   246   242   246      1
   247   242   247      1
   248   247   248      1
   249   247   249      1
   250   247   250      1
   251   248   251      1
   252   248   252      1
   253   248   253      1
   254   253   254      1
   255   253   255      1
   256   253   256      1
   257   254   257      1
   258   254   258      1
   259   254   259      1
   260   259   260      1
   261   259   261      1
   262   259   262      1
   263   260   263      1
   264   260   264      1
   265   260   265      1
   266   265   266      1
   267   265   267      1
   268   265   268      1
   269   266   269      1
   270   266   270      1
   271   266   271      1
   272   271   272      1
   273   271   273      1
   274   271   274      1
   275   272   275      1
   276   272   276      1
   277   272   277      1
   278   277   278      1
   279   277   279      1
   280   277   280      1
   281   278   281      1
   282   278   282      1
   283   278   283      1
   284   283   284      1
   285   283   285      1
   286   283   286      1
   287   284   287      1
   288   284   288      1
   289   284   289      1
   290   289   290      1
   291   289   291      1
   292   289   292      1
   293   290   293      1
   294   290   294      1
   295   290   295      H
