###
### Created by PolyChef-cpp17 on Thu Feb 27 19:40:28 2025
###

@<TRIPOS>MOLECULE
NO_INFO
290 289 1 0 0
SMALL
USER_CHARGES


@<TRIPOS>ATOM
      1 C          79.2798    1.2287  -39.3449 C.3       0        0    0.0000
      2 C          77.8706    1.0682  -38.7641 C.3       0        0    0.0000
      3 H          79.9271    0.4166  -38.9913 H         0        0    0.0000
      4 H          79.7280    2.1655  -38.9913 H         0        0    0.0000
      5 H          77.3723    2.0441  -38.7109 H         0        0    0.0000
      6 H          77.2610    0.4388  -39.4243 H         0        0    0.0000
      7 C          77.8873    0.4306  -37.3321 C.3       1        0    0.0000
      8 C          79.1651    0.7737  -36.5584 C.3       1        0    0.0000
      9 H          77.0070    0.7808  -36.7788 H         1        0    0.0000
     10 H          77.7866   -0.6576  -37.4283 H         1        0    0.0000
     11 H          80.0452    0.5995  -37.1896 H         1        0    0.0000
     12 H          79.1713    1.8389  -36.2960 H         1        0    0.0000
     13 C          79.3096   -0.0708  -35.2456 C.3       2        0    0.0000
     14 C          80.2037    0.6168  -34.2080 C.3       2        0    0.0000
     15 H          78.3112   -0.2450  -34.8255 H         2        0    0.0000
     16 H          79.7197   -1.0555  -35.5020 H         2        0    0.0000
     17 H          81.2591    0.4978  -34.4829 H         2        0    0.0000
     18 H          80.0018    1.6951  -34.1930 H         2        0    0.0000
     19 C          79.9895    0.0425  -32.7652 C.3       3        0    0.0000
     20 C          80.6127    0.9350  -31.6863 C.3       3        0    0.0000
     21 H          78.9130   -0.0693  -32.5853 H         3        0    0.0000
     22 H          80.4231   -0.9641  -32.7173 H         3        0    0.0000
     23 H          81.7020    0.9713  -31.8112 H         3        0    0.0000
     24 H          80.2488    1.9644  -31.7932 H         3        0    0.0000
     25 C          80.2867    0.4318  -30.2378 C.3       4        0    0.0000
     26 C          80.8913    1.3368  -29.1587 C.3       4        0    0.0000
     27 H          79.1974    0.3799  -30.1183 H         4        0    0.0000
     28 H          80.6650   -0.5918  -30.1256 H         4        0    0.0000
     29 H          81.9814    1.3827  -29.2737 H         4        0    0.0000
     30 H          80.5187    2.3620  -29.2755 H         4        0    0.0000
     31 C          80.5565    0.8395  -27.7102 C.3       5        0    0.0000
     32 C          81.1765    1.7340  -26.6312 C.3       5        0    0.0000
     33 H          79.4665    0.8064  -27.5908 H         5        0    0.0000
     34 H          80.9172   -0.1905  -27.5978 H         5        0    0.0000
     35 H          82.2663    1.7694  -26.7523 H         5        0    0.0000
     36 H          80.8137    2.7634  -26.7418 H         5        0    0.0000
     37 C          80.8451    1.2344  -25.1827 C.3       6        0    0.0000
     38 C          81.4090    2.1656  -24.1038 C.3       6        0    0.0000
     39 H          79.7562    1.1526  -25.0774 H         6        0    0.0000
     40 H          81.2507    0.2229  -25.0561 H         6        0    0.0000
     41 H          82.4988    2.2411  -24.2043 H         6        0    0.0000
     42 H          81.0095    3.1788  -24.2352 H         6        0    0.0000
     43 C          81.0682    1.6718  -22.6556 C.3       7        0    0.0000
     44 C          82.1449    2.0667  -21.6388 C.3       7        0    0.0000
     45 H          80.0986    2.0902  -22.3583 H         7        0    0.0000
     46 H          80.9488    0.5814  -22.6726 H         7        0    0.0000
     47 H          83.1329    1.7501  -21.9951 H         7        0    0.0000
     48 H          82.1822    3.1583  -21.5353 H         7        0    0.0000
     49 C          81.8899    1.4338  -20.2274 C.3       8        0    0.0000
     50 C          81.8849    2.4848  -19.1119 C.3       8        0    0.0000
     51 H          80.9310    0.9012  -20.2467 H         8        0    0.0000
     52 H          82.6642    0.6816  -20.0322 H         8        0    0.0000
     53 H          82.9143    2.7434  -18.8341 H         8        0    0.0000
     54 H          81.4131    3.4090  -19.4679 H         8        0    0.0000
     55 C          81.1255    1.9900  -17.8329 C.3       9        0    0.0000
     56 C          81.9920    2.0795  -16.5718 C.3       9        0    0.0000
     57 H          80.2157    2.5900  -17.7075 H         9        0    0.0000
     58 H          80.8004    0.9545  -17.9931 H         9        0    0.0000
     59 H          83.0110    1.7368  -16.7905 H         9        0    0.0000
     60 H          82.0741    3.1236  -16.2451 H         9        0    0.0000
     61 C          81.4138    1.2248  -15.3917 C.3      10        0    0.0000
     62 C          81.7290    1.8369  -14.0224 C.3      10        0    0.0000
     63 H          80.3284    1.1317  -15.5213 H        10        0    0.0000
     64 H          81.8267    0.2104  -15.4544 H        10        0    0.0000
     65 H          82.8083    1.7941  -13.8307 H        10        0    0.0000
     66 H          81.4487    2.8975  -14.0109 H        10        0    0.0000
     67 C          80.9794    1.1035  -12.8571 C.3      11        0    0.0000
     68 C          81.4519    1.5726  -11.4766 C.3      11        0    0.0000
     69 H          79.9017    1.2776  -12.9651 H        11        0    0.0000
     70 H          81.1359    0.0226  -12.9610 H        11        0    0.0000
     71 H          82.5362    1.4346  -11.3832 H        11        0    0.0000
     72 H          81.2595    2.6461  -11.3579 H        11        0    0.0000
     73 C          80.7421    0.8002  -10.3117 C.3      12        0    0.0000
     74 C          81.1990    1.2839   -8.9310 C.3      12        0    0.0000
     75 H          79.6570    0.9254  -10.4140 H        12        0    0.0000
     76 H          80.9473   -0.2718  -10.4216 H        12        0    0.0000
     77 H          82.2833    1.1539   -8.8267 H        12        0    0.0000
     78 H          80.9986    2.3571   -8.8230 H        12        0    0.0000
     79 C          80.4838    0.5166   -7.7660 C.3      13        0    0.0000
     80 C          80.9403    1.0006   -6.3853 C.3      13        0    0.0000
     81 H          79.3994    0.6463   -7.8705 H        13        0    0.0000
     82 H          80.6845   -0.5566   -7.8738 H        13        0    0.0000
     83 H          82.0250    0.8727   -6.2815 H        13        0    0.0000
     84 H          80.7378    2.0733   -6.2768 H        13        0    0.0000
     85 C          80.2271    0.2314   -5.2203 C.3      14        0    0.0000
     86 C          80.6965    0.7034   -3.8398 C.3      14        0    0.0000
     87 H          79.1431    0.3699   -5.3167 H        14        0    0.0000
     88 H          80.4190   -0.8425   -5.3361 H        14        0    0.0000
     89 H          81.7823    0.5763   -3.7479 H        14        0    0.0000
     90 H          80.4933    1.7747   -3.7193 H        14        0    0.0000
     91 C          79.9960   -0.0778   -2.6750 C.3      15        0    0.0000
     92 C          80.4356    0.4213   -1.2942 C.3      15        0    0.0000
     93 H          78.9092    0.0250   -2.7837 H        15        0    0.0000
     94 H          80.2233   -1.1460   -2.7788 H        15        0    0.0000
     95 H          81.5148    0.2716   -1.1661 H        15        0    0.0000
     96 H          80.2548    1.5000   -1.2090 H        15        0    0.0000
     97 C          79.6824   -0.3108   -0.1304 C.3      16        0    0.0000
     98 C          80.0792    0.2287    1.2482 C.3      16        0    0.0000
     99 H          78.6018   -0.1973   -0.2820 H        16        0    0.0000
    100 H          79.8978   -1.3848   -0.1903 H        16        0    0.0000
    101 H          79.4439   -0.2169    2.0236 H        16        0    0.0000
    102 H          81.1114   -0.0600    1.4823 H        16        0    0.0000
    103 C          79.9596    1.7895    1.3323 C.3      17        0    0.0000
    104 C          80.3455    2.3280    2.7144 C.3      17        0    0.0000
    105 H          80.6013    2.2353    0.5623 H        17        0    0.0000
    106 H          78.9294    2.0788    1.0901 H        17        0    0.0000
    107 H          81.1711    3.0445    2.6218 H        17        0    0.0000
    108 H          79.5020    2.8744    3.1542 H        17        0    0.0000
    109 C          80.7757    1.1857    3.6981 C.3      18        0    0.0000
    110 C          81.1108    1.7183    5.0956 C.3      18        0    0.0000
    111 H          79.9653    0.4490    3.7606 H        18        0    0.0000
    112 H          81.6438    0.6641    3.2763 H        18        0    0.0000
    113 H          80.1889    1.9816    5.6289 H        18        0    0.0000
    114 H          81.6049    0.9377    5.6872 H        18        0    0.0000
    115 C          82.0419    2.9785    5.0437 C.3      19        0    0.0000
    116 C          82.2904    3.5746    6.4336 C.3      19        0    0.0000
    117 H          82.9949    2.6951    4.5800 H        19        0    0.0000
    118 H          81.5838    3.7298    4.3886 H        19        0    0.0000
    119 H          82.8981    2.8869    7.0347 H        19        0    0.0000
    120 H          82.8627    4.5065    6.3464 H        19        0    0.0000
    121 C          80.9556    3.8713    7.2003 C.3      20        0    0.0000
    122 C          81.2040    4.4773    8.5859 C.3      20        0    0.0000
    123 H          80.3446    4.5528    6.5956 H        20        0    0.0000
    124 H          80.3869    2.9378    7.2943 H        20        0    0.0000
    125 H          80.2568    4.8161    9.0236 H        20        0    0.0000
    126 H          81.6089    3.7148    9.2629 H        20        0    0.0000
    127 C          82.1988    5.6877    8.5354 C.3      21        0    0.0000
    128 C          82.7644    6.0329    9.9174 C.3      21        0    0.0000
    129 H          83.0158    5.4454    7.8444 H        21        0    0.0000
    130 H          81.6776    6.5565    8.1145 H        21        0    0.0000
    131 H          81.9752    6.4543   10.5523 H        21        0    0.0000
    132 H          83.1181    5.1226   10.4172 H        21        0    0.0000
    133 C          83.9483    7.0572    9.8360 C.3      22        0    0.0000
    134 C          83.8849    8.1079   10.9499 C.3      22        0    0.0000
    135 H          84.8960    6.5073    9.8910 H        22        0    0.0000
    136 H          83.9249    7.5473    8.8548 H        22        0    0.0000
    137 H          82.8513    8.4491   11.0869 H        22        0    0.0000
    138 H          84.1994    7.6651   11.9031 H        22        0    0.0000
    139 C          84.7912    9.3506   10.6467 C.3      23        0    0.0000
    140 C          84.1578   10.6619   11.1247 C.3      23        0    0.0000
    141 H          85.7648    9.2048   11.1308 H        23        0    0.0000
    142 H          84.9798    9.3956    9.5670 H        23        0    0.0000
    143 H          83.1064   10.7066   10.8148 H        23        0    0.0000
    144 H          84.1653   10.7056   12.2209 H        23        0    0.0000
    145 C          84.9040   11.9212   10.5636 C.3      24        0    0.0000
    146 C          85.4179   12.8371   11.6799 C.3      24        0    0.0000
    147 H          85.7399   11.5868    9.9367 H        24        0    0.0000
    148 H          84.2202   12.4745    9.9080 H        24        0    0.0000
    149 H          84.6530   13.5796   11.9393 H        24        0    0.0000
    150 H          85.6098   12.2522   12.5880 H        24        0    0.0000
    151 C          86.7334   13.5872   11.2746 C.3      25        0    0.0000
    152 C          86.4515   14.9588   10.6516 C.3      25        0    0.0000
    153 H          87.3643   13.7009   12.1649 H        25        0    0.0000
    154 H          87.2940   12.9616   10.5690 H        25        0    0.0000
    155 H          85.4476   15.3005   10.9327 H        25        0    0.0000
    156 H          87.1580   15.7017   11.0422 H        25        0    0.0000
    157 C          86.5575   14.9342    9.0878 C.3      26        0    0.0000
    158 C          87.4382   16.0662    8.5473 C.3      26        0    0.0000
    159 H          86.9603   13.9626    8.7759 H        26        0    0.0000
    160 H          85.5483   15.0076    8.6638 H        26        0    0.0000
    161 H          86.8289   16.9582    8.3562 H        26        0    0.0000
    162 H          88.1870   16.3507    9.2969 H        26        0    0.0000
    163 C          88.1756   15.6648    7.2235 C.3      27        0    0.0000
    164 C          88.4409   16.8721    6.3174 C.3      27        0    0.0000
    165 H          89.1217   15.1727    7.4810 H        27        0    0.0000
    166 H          87.5685   14.9217    6.6919 H        27        0    0.0000
    167 H          87.5338   17.4829    6.2294 H        27        0    0.0000
    168 H          89.2111   17.5143    6.7623 H        27        0    0.0000
    169 C          88.9050   16.4469    4.8817 C.3      28        0    0.0000
    170 C          89.0291   17.6441    3.9329 C.3      28        0    0.0000
    171 H          89.8684   15.9281    4.9607 H        28        0    0.0000
    172 H          88.1882   15.7205    4.4790 H        28        0    0.0000
    173 H          88.0777   18.1886    3.8880 H        28        0    0.0000
    174 H          89.7781   18.3496    4.3135 H        28        0    0.0000
    175 C          89.4333   17.2123    2.4812 C.3      29        0    0.0000
    176 C          89.4637   18.3976    1.5099 C.3      29        0    0.0000
    177 H          90.4179   16.7300    2.5169 H        29        0    0.0000
    178 H          88.7237   16.4541    2.1273 H        29        0    0.0000
    179 H          88.4909   18.9047    1.5047 H        29        0    0.0000
    180 H          90.2028   19.1372    1.8420 H        29        0    0.0000
    181 C          89.8119   17.9574    0.0462 C.3      30        0    0.0000
    182 C          89.5329   19.0653   -0.9754 C.3      30        0    0.0000
    183 H          90.8689   17.6665    0.0064 H        30        0    0.0000
    184 H          89.2291   17.0616   -0.2018 H        30        0    0.0000
    185 H          88.5016   19.4240   -0.8692 H        30        0    0.0000
    186 H          90.1868   19.9256   -0.7854 H        30        0    0.0000
    187 C          89.7503   18.5817   -2.4506 C.3      31        0    0.0000
    188 C          88.9360   19.4023   -3.4569 C.3      31        0    0.0000
    189 H          90.8189   18.6460   -2.6900 H        31        0    0.0000
    190 H          89.4752   17.5219   -2.5194 H        31        0    0.0000
    191 H          87.8817   19.4294   -3.1546 H        31        0    0.0000
    192 H          89.2876   20.4414   -3.4670 H        31        0    0.0000
    193 C          89.0301   18.8229   -4.9105 C.3      32        0    0.0000
    194 C          89.3622   19.9030   -5.9459 C.3      32        0    0.0000
    195 H          89.7947   18.0364   -4.9288 H        32        0    0.0000
    196 H          88.0769   18.3414   -5.1617 H        32        0    0.0000
    197 H          88.4891   20.5461   -6.1119 H        32        0    0.0000
    198 H          90.1637   20.5509   -5.5698 H        32        0    0.0000
    199 C          89.8084   19.2925   -7.3191 C.3      33        0    0.0000
    200 C          88.9658   19.8145   -8.4881 C.3      33        0    0.0000
    201 H          90.8671   19.5284   -7.4836 H        33        0    0.0000
    202 H          89.7346   18.1994   -7.2608 H        33        0    0.0000
    203 H          87.9084   19.8589   -8.1993 H        33        0    0.0000
    204 H          89.2667   20.8388   -8.7407 H        33        0    0.0000
    205 C          89.1032   18.9177   -9.7665 C.3      34        0    0.0000
    206 C          89.1650   19.7470  -11.0539 C.3      34        0    0.0000
    207 H          90.0066   18.3026   -9.6715 H        34        0    0.0000
    208 H          88.2533   18.2251   -9.8056 H        34        0    0.0000
    209 H          88.1927   20.2177  -11.2452 H        34        0    0.0000
    210 H          89.8925   20.5606  -10.9427 H        34        0    0.0000
    211 C          89.5613   18.8817  -12.2996 C.3      35        0    0.0000
    212 C          89.2008   19.5678  -13.6218 C.3      35        0    0.0000
    213 H          90.6390   18.6804  -12.2619 H        35        0    0.0000
    214 H          89.0567   17.9101  -12.2302 H        35        0    0.0000
    215 H          88.1382   19.8406  -13.6266 H        35        0    0.0000
    216 H          89.7663   20.5019  -13.7273 H        35        0    0.0000
    217 C          89.4941   18.6566  -14.8633 C.3      36        0    0.0000
    218 C          89.2635   19.3897  -16.1893 C.3      36        0    0.0000
    219 H          90.5307   18.3022  -14.8047 H        36        0    0.0000
    220 H          88.8537   17.7676  -14.8086 H        36        0    0.0000
    221 H          88.2207   19.7236  -16.2581 H        36        0    0.0000
    222 H          89.8866   20.2915  -16.2339 H        36        0    0.0000
    223 C          89.5886   18.4890  -17.4305 C.3      37        0    0.0000
    224 C          89.3355   19.2143  -18.7567 C.3      37        0    0.0000
    225 H          90.6363   18.1692  -17.3706 H        37        0    0.0000
    226 H          88.9779   17.5792  -17.3768 H        37        0    0.0000
    227 H          88.2890   19.5384  -18.8145 H        37        0    0.0000
    228 H          89.9498   20.1215  -18.8125 H        37        0    0.0000
    229 C          89.6541   18.3113  -19.9979 C.3      38        0    0.0000
    230 C          89.3971   19.0352  -21.3242 C.3      38        0    0.0000
    231 H          90.7014   17.9897  -19.9417 H        38        0    0.0000
    232 H          89.0420   17.4027  -19.9405 H        38        0    0.0000
    233 H          88.3499   19.3576  -21.3800 H        38        0    0.0000
    234 H          90.0098   19.9433  -21.3819 H        38        0    0.0000
    235 C          89.7144   18.1317  -22.5654 C.3      39        0    0.0000
    236 C          89.4575   18.8557  -23.8916 C.3      39        0    0.0000
    237 H          90.7615   17.8093  -22.5095 H        39        0    0.0000
    238 H          89.1016   17.2236  -22.5076 H        39        0    0.0000
    239 H          88.4102   19.1773  -23.9479 H        39        0    0.0000
    240 H          90.0696   19.7643  -23.9489 H        39        0    0.0000
    241 C          89.7762   17.9527  -25.1328 C.3      40        0    0.0000
    242 C          89.5228   18.6778  -26.4590 C.3      40        0    0.0000
    243 H          90.8228   17.6288  -25.0751 H        40        0    0.0000
    244 H          89.1621   17.0453  -25.0769 H        40        0    0.0000
    245 H          88.4764   19.0024  -26.5164 H        40        0    0.0000
    246 H          90.1374   19.5848  -26.5153 H        40        0    0.0000
    247 C          89.8404   17.7745  -27.7002 C.3      41        0    0.0000
    248 C          89.5863   18.4994  -29.0265 C.3      41        0    0.0000
    249 H          90.8869   17.4504  -27.6432 H        41        0    0.0000
    250 H          89.2261   16.8673  -27.6437 H        41        0    0.0000
    251 H          88.5395   18.8226  -29.0840 H        41        0    0.0000
    252 H          90.1998   19.4072  -29.0826 H        41        0    0.0000
    253 C          89.9053   17.5965  -30.2677 C.3      42        0    0.0000
    254 C          89.6468   18.3199  -31.5939 C.3      42        0    0.0000
    255 H          90.9530   17.2761  -30.2119 H        42        0    0.0000
    256 H          89.2943   16.6872  -30.2098 H        42        0    0.0000
    257 H          88.5993   18.6411  -31.6493 H        42        0    0.0000
    258 H          90.2585   19.2287  -31.6522 H        42        0    0.0000
    259 C          89.9646   17.4166  -32.8351 C.3      43        0    0.0000
    260 C          89.7110   18.1417  -34.1614 C.3      43        0    0.0000
    261 H          91.0110   17.0923  -32.7778 H        43        0    0.0000
    262 H          89.3501   16.5095  -32.7789 H        43        0    0.0000
    263 H          88.6642   18.4648  -34.2193 H        43        0    0.0000
    264 H          90.3244   19.0495  -34.2170 H        43        0    0.0000
    265 C          90.0306   17.2391  -35.4025 C.3      44        0    0.0000
    266 C          89.7733   17.9628  -36.7288 C.3      44        0    0.0000
    267 H          91.0783   16.9184  -35.3461 H        44        0    0.0000
    268 H          89.4193   16.3299  -35.3454 H        44        0    0.0000
    269 H          88.7260   18.2849  -36.7846 H        44        0    0.0000
    270 H          90.3857   18.8712  -36.7866 H        44        0    0.0000
    271 C          90.0909   17.0595  -37.9700 C.3      45        0    0.0000
    272 C          89.8364   17.7843  -39.2962 C.3      45        0    0.0000
    273 H          91.1375   16.7357  -37.9131 H        45        0    0.0000
    274 H          89.4769   16.1521  -37.9133 H        45        0    0.0000
    275 H          88.7892   18.1063  -39.3540 H        45        0    0.0000
    276 H          90.4489   18.6927  -39.3521 H        45        0    0.0000
    277 C          90.1567   16.8818  -40.5374 C.3      46        0    0.0000
    278 C          89.9018   17.6065  -41.8637 C.3      46        0    0.0000
    279 H          91.2039   16.5600  -40.4798 H        46        0    0.0000
    280 H          89.5443   15.9733  -40.4815 H        46        0    0.0000
    281 H          90.2906   17.0105  -42.6987 H        46        0    0.0000
    282 H          88.8232   17.7169  -42.0308 H        46        0    0.0000
    283 C          90.5670   19.0254  -41.9028 C.3      47        0    0.0000
    284 C          90.0564   19.8743  -43.0723 C.3      47        0    0.0000
    285 H          90.3677   19.5358  -40.9524 H        47        0    0.0000
    286 H          91.6551   18.9040  -41.9730 H        47        0    0.0000
    287 H          90.2558   19.3640  -44.0227 H        47        0    0.0000
    288 H          88.9684   19.9957  -43.0021 H        47        0    0.0000
    289 H          90.5190   20.8609  -43.0995 H        47        0    0.0000
    290 H          79.2798    1.2287  -40.4349 H         0        0    0.0000
@<TRIPOS>BOND
     1     1     2      1
     2     1     3      1
     3     1     4      1
     4     1   290      H
     5     2     5      1
     6     2     6      1
     7     2     7      1
     8     7     8      1
     9     7     9      1
    10     7    10      1
    11     8    11      1
    12     8    12      1
    13     8    13      1
    14    13    14      1
    15    13    15      1
    16    13    16      1
    17    14    17      1
    18    14    18      1
    19    14    19      1
    20    19    20      1
    21    19    21      1
    22    19    22      1
    23    20    23      1
    24    20    24      1
    25    20    25      1
    26    25    26      1
    27    25    27      1
    28    25    28      1
    29    26    29      1
    30    26    30      1
    31    26    31      1
    32    31    32      1
    33    31    33      1
    34    31    34      1
    35    32    35      1
    36    32    36      1
    37    32    37      1
    38    37    38      1
    39    37    39      1
    40    37    40      1
    41    38    41      1
    42    38    42      1
    43    38    43      1
    44    43    44      1
    45    43    45      1
    46    43    46      1
    47    44    47      1
    48    44    48      1
    49    44    49      1
    50    49    50      1
    51    49    51      1
    52    49    52      1
    53    50    53      1
    54    50    54      1
    55    50    55      1
    56    55    56      1
    57    55    57      1
    58    55    58      1
    59    56    59      1
    60    56    60      1
    61    56    61      1
    62    61    62      1
    63    61    63      1
    64    61    64      1
    65    62    65      1
    66    62    66      1
    67    62    67      1
    68    67    68      1
    69    67    69      1
    70    67    70      1
    71    68    71      1
    72    68    72      1
    73    68    73      1
    74    73    74      1
    75    73    75      1
    76    73    76      1
    77    74    77      1
    78    74    78      1
    79    74    79      1
    80    79    80      1
    81    79    81      1
    82    79    82      1
    83    80    83      1
    84    80    84      1
    85    80    85      1
    86    85    86      1
    87    85    87      1
    88    85    88      1
    89    86    89      1
    90    86    90      1
    91    86    91      1
    92    91    92      1
    93    91    93      1
    94    91    94      1
    95    92    95      1
    96    92    96      1
    97    92    97      1
    98    97    98      1
    99    97    99      1
   100    97   100      1
   101    98   101      1
   102    98   102      1
   103    98   103      1
   104   103   104      1
   105   103   105      1
   106   103   106      1
   107   104   107      1
   108   104   108      1
   109   104   109      1
   110   109   110      1
   111   109   111      1
   112   109   112      1
   113   110   113      1
   114   110   114      1
   115   110   115      1
   116   115   116      1
   117   115   117      1
   118   115   118      1
   119   116   119      1
   120   116   120      1
   121   116   121      1
   122   121   122      1
   123   121   123      1
   124   121   124      1
   125   122   125      1
   126   122   126      1
   127   122   127      1
   128   127   128      1
   129   127   129      1
   130   127   130      1
   131   128   131      1
   132   128   132      1
   133   128   133      1
   134   133   134      1
   135   133   135      1
   136   133   136      1
   137   134   137      1
   138   134   138      1
   139   134   139      1
   140   139   140      1
   141   139   141      1
   142   139   142      1
   143   140   143      1
   144   140   144      1
   145   140   145      1
   146   145   146      1
   147   145   147      1
   148   145   148      1
   149   146   149      1
   150   146   150      1
   151   146   151      1
   152   151   152      1
   153   151   153      1
   154   151   154      1
   155   152   155      1
   156   152   156      1
   157   152   157      1
   158   157   158      1
   159   157   159      1
   160   157   160      1
   161   158   161      1
   162   158   162      1
   163   158   163      1
   164   163   164      1
   165   163   165      1
   166   163   166      1
   167   164   167      1
   168   164   168      1
   169   164   169      1
   170   169   170      1
   171   169   171      1
   172   169   172      1
   173   170   173      1
   174   170   174      1
   175   170   175      1
   176   175   176      1
   177   175   177      1
   178   175   178      1
   179   176   179      1
   180   176   180      1
   181   176   181      1
   182   181   182      1
   183   181   183      1
   184   181   184      1
   185   182   185      1
   186   182   186      1
   187   182   187      1
   188   187   188      1
   189   187   189      1
   190   187   190      1
   191   188   191      1
   192   188   192      1
   193   188   193      1
   194   193   194      1
   195   193   195      1
   196   193   196      1
   197   194   197      1
   198   194   198      1
   199   194   199      1
   200   199   200      1
   201   199   201      1
   202   199   202      1
   203   200   203      1
   204   200   204      1
   205   200   205      1
   206   205   206      1
   207   205   207      1
   208   205   208      1
   209   206   209      1
   210   206   210      1
   211   206   211      1
   212   211   212      1
   213   211   213      1
   214   211   214      1
   215   212   215      1
   216   212   216      1
   217   212   217      1
   218   217   218      1
   219   217   219      1
   220   217   220      1
   221   218   221      1
   222   218   222      1
   223   218   223      1
   224   223   224      1
   225   223   225      1
   226   223   226      1
   227   224   227      1
   228   224   228      1
   229   224   229      1
   230   229   230      1
   231   229   231      1
   232   229   232      1
   233   230   233      1
   234   230   234      1
   235   230   235      1
   236   235   236      1
   237   235   237      1
   238   235   238      1
   239   236   239      1
   240   236   240      1
   241   236   241      1
   242   241   242      1
   243   241   243      1
   244   241   244      1
   245   242   245      1
   246   242   246      1
   247   242   247      1
   248   247   248      1
   249   247   249      1
   250   247   250      1
   251   248   251      1
   252   248   252      1
   253   248   253      1
   254   253   254      1
   255   253   255      1
   256   253   256      1
   257   254   257      1
   258   254   258      1
   259   254   259      1
   260   259   260      1
   261   259   261      1
   262   259   262      1
   263   260   263      1
   264   260   264      1
   265   260   265      1
   266   265   266      1
   267   265   267      1
   268   265   268      1
   269   266   269      1
   270   266   270      1
   271   266   271      1
   272   271   272      1
   273   271   273      1
   274   271   274      1
   275   272   275      1
   276   272   276      1
   277   272   277      1
   278   277   278      1
   279   277   279      1
   280   277   280      1
   281   278   281      1
   282   278   282      1
   283   278   283      1
   284   283   284      1
   285   283   285      1
   286   283   286      1
   287   284   287      1
   288   284   288      1
   289   284   289      H
