###
### Created by PolyChef-cpp17 on Thu Feb 27 19:40:28 2025
###

@<TRIPOS>MOLECULE
NO_INFO
320 319 1 0 0
SMALL
USER_CHARGES


@<TRIPOS>ATOM
      1 C          99.2798   70.5087  -39.3449 C.3       0        0    0.0000
      2 C          97.8706   70.3482  -38.7641 C.3       0        0    0.0000
      3 H          99.9271   69.6966  -38.9913 H         0        0    0.0000
      4 H          99.7280   71.4455  -38.9913 H         0        0    0.0000
      5 H          97.3721   71.3240  -38.7114 H         0        0    0.0000
      6 H          97.2612   69.7184  -39.4240 H         0        0    0.0000
      7 C          97.8873   69.7113  -37.3318 C.3       1        0    0.0000
      8 C          99.1651   70.0549  -36.5582 C.3       1        0    0.0000
      9 H          97.0071   70.0616  -36.7787 H         1        0    0.0000
     10 H          97.7867   68.6231  -37.4275 H         1        0    0.0000
     11 H         100.0455   69.8769  -37.1881 H         1        0    0.0000
     12 H          99.1731   71.1210  -36.2996 H         1        0    0.0000
     13 C          99.3070   69.2147  -35.2424 C.3       2        0    0.0000
     14 C         100.2069   69.9013  -34.2090 C.3       2        0    0.0000
     15 H          98.3084   69.0479  -34.8199 H         2        0    0.0000
     16 H          99.7110   68.2267  -35.4956 H         2        0    0.0000
     17 H         101.2609   69.7786  -34.4874 H         2        0    0.0000
     18 H         100.0083   70.9802  -34.1950 H         2        0    0.0000
     19 C          99.9960   69.3300  -32.7645 C.3       3        0    0.0000
     20 C         100.6221   70.2245  -31.6889 C.3       3        0    0.0000
     21 H          98.9199   69.2189  -32.5818 H         3        0    0.0000
     22 H         100.4293   68.3233  -32.7157 H         3        0    0.0000
     23 H         101.7113   70.2589  -31.8156 H         3        0    0.0000
     24 H         100.2596   71.2541  -31.7981 H         3        0    0.0000
     25 C         100.2976   69.7256  -30.2387 C.3       4        0    0.0000
     26 C         100.9060   70.6321  -29.1629 C.3       4        0    0.0000
     27 H          99.2084   69.6764  -30.1171 H         4        0    0.0000
     28 H         100.6739   68.7015  -30.1245 H         4        0    0.0000
     29 H         101.9956   70.6786  -29.2824 H         4        0    0.0000
     30 H         100.5323   71.6569  -29.2791 H         4        0    0.0000
     31 C         100.5775   70.1359  -27.7126 C.3       5        0    0.0000
     32 C         101.1720   71.0516  -26.6369 C.3       5        0    0.0000
     33 H          99.4881   70.0778  -27.5970 H         5        0    0.0000
     34 H         100.9620   69.1155  -27.5924 H         5        0    0.0000
     35 H         102.2617   71.1071  -26.7504 H         5        0    0.0000
     36 H         100.7901   72.0728  -26.7591 H         5        0    0.0000
     37 C         100.8395   70.5581  -25.1866 C.3       6        0    0.0000
     38 C         101.4825   71.4405  -24.1110 C.3       6        0    0.0000
     39 H          99.7499   70.5434  -25.0591 H         6        0    0.0000
     40 H         101.1833   69.5219  -25.0781 H         6        0    0.0000
     41 H         102.5714   71.4609  -24.2428 H         6        0    0.0000
     42 H         101.1331   72.4752  -24.2150 H         6        0    0.0000
     43 C         101.1583   70.9411  -22.6608 C.3       7        0    0.0000
     44 C         101.0214   72.0981  -21.6651 C.3       7        0    0.0000
     45 H         100.2307   70.3560  -22.6875 H         7        0    0.0000
     46 H         101.9527   70.2576  -22.3364 H         7        0    0.0000
     47 H         101.9886   72.5995  -21.5356 H         7        0    0.0000
     48 H         100.3262   72.8511  -22.0566 H         7        0    0.0000
     49 C         100.5095   71.6182  -20.2633 C.3       8        0    0.0000
     50 C         101.4346   72.0607  -19.1243 C.3       8        0    0.0000
     51 H          99.4987   72.0129  -20.1018 H         8        0    0.0000
     52 H         100.4226   70.5246  -20.2740 H         8        0    0.0000
     53 H         102.4792   72.0404  -19.4587 H         8        0    0.0000
     54 H         101.2143   73.0977  -18.8421 H         8        0    0.0000
     55 C         101.2924   71.1507  -17.8558 C.3       9        0    0.0000
     56 C         101.0213   71.9638  -16.5851 C.3       9        0    0.0000
     57 H         100.4792   70.4338  -18.0242 H         9        0    0.0000
     58 H         102.2111   70.5630  -17.7374 H         9        0    0.0000
     59 H         101.9362   72.4775  -16.2650 H         9        0    0.0000
     60 H         100.2771   72.7436  -16.7891 H         9        0    0.0000
     61 C         100.5053   71.0689  -15.4060 C.3      10        0    0.0000
     62 C         100.9126   71.6219  -14.0358 C.3      10        0    0.0000
     63 H          99.4128   70.9932  -15.4715 H        10        0    0.0000
     64 H         100.8997   70.0532  -15.5341 H        10        0    0.0000
     65 H         101.9901   71.8274  -14.0183 H        10        0    0.0000
     66 H         100.4065   72.5774  -13.8503 H        10        0    0.0000
     67 C         100.5678   70.6327  -12.8696 C.3      11        0    0.0000
     68 C         100.7989   71.2585  -11.4897 C.3      11        0    0.0000
     69 H          99.5214   70.3188  -12.9698 H        11        0    0.0000
     70 H         101.1798   69.7289  -12.9800 H        11        0    0.0000
     71 H         101.8532   71.5397  -11.3760 H        11        0    0.0000
     72 H         100.2144   72.1819  -11.3928 H        11        0    0.0000
     73 C         100.4063   70.2873  -10.3236 C.3      12        0    0.0000
     74 C         100.6485   70.9087   -8.9436 C.3      12        0    0.0000
     75 H          99.3497   70.0129  -10.4324 H        12        0    0.0000
     76 H         100.9846   69.3605  -10.4254 H        12        0    0.0000
     77 H         101.7042   71.1869   -8.8364 H        12        0    0.0000
     78 H         100.0670   71.8332   -8.8402 H        12        0    0.0000
     79 C         100.2615   69.9352   -7.7774 C.3      13        0    0.0000
     80 C         100.5149   70.5522   -6.3975 C.3      13        0    0.0000
     81 H          99.2034   69.6640   -7.8797 H        13        0    0.0000
     82 H         100.8365   69.0073   -7.8860 H        13        0    0.0000
     83 H         101.5707   70.8337   -6.2995 H        13        0    0.0000
     84 H          99.9312   71.4742   -6.2848 H        13        0    0.0000
     85 C         100.1426   69.5728   -5.2314 C.3      14        0    0.0000
     86 C         100.4537   70.1662   -3.8530 C.3      14        0    0.0000
     87 H          99.0759   69.3269   -5.3031 H        14        0    0.0000
     88 H         100.6924   68.6336   -5.3694 H        14        0    0.0000
     89 H         101.5173   70.4269   -3.7869 H        14        0    0.0000
     90 H          99.8916   71.0972   -3.7086 H        14        0    0.0000
     91 C         100.1023   69.1781   -2.6878 C.3      15        0    0.0000
     92 C         100.2740   69.8226   -1.3079 C.3      15        0    0.0000
     93 H          99.0687   68.8334   -2.8160 H        15        0    0.0000
     94 H         100.7427   68.2912   -2.7710 H        15        0    0.0000
     95 H         101.3377   69.8663   -1.0429 H        15        0    0.0000
     96 H          99.9117   70.8579   -1.3286 H        15        0    0.0000
     97 C          99.5058   69.0407   -0.1872 C.3      16        0    0.0000
     98 C          98.9258   69.9756    0.8799 C.3      16        0    0.0000
     99 H          98.7024   68.4556   -0.6515 H        16        0    0.0000
    100 H         100.1923   68.3212    0.2760 H        16        0    0.0000
    101 H          99.6995   70.2358    1.6128 H        16        0    0.0000
    102 H          98.5995   70.9161    0.4189 H        16        0    0.0000
    103 C          97.7104   69.3343    1.6343 C.3      17        0    0.0000
    104 C          97.0236   70.3271    2.5786 C.3      17        0    0.0000
    105 H          96.9920   68.9606    0.8942 H        17        0    0.0000
    106 H          98.0643   68.4623    2.1980 H        17        0    0.0000
    107 H          97.7373   70.6867    3.3302 H        17        0    0.0000
    108 H          96.6860   71.2076    2.0180 H        17        0    0.0000
    109 C          95.7924   69.6935    3.3135 C.3      18        0    0.0000
    110 C          95.8271   69.9424    4.8254 C.3      18        0    0.0000
    111 H          94.8722   70.1095    2.8849 H        18        0    0.0000
    112 H          95.7754   68.6156    3.1101 H        18        0    0.0000
    113 H          96.8487   70.1852    5.1433 H        18        0    0.0000
    114 H          95.2041   70.8093    5.0784 H        18        0    0.0000
    115 C          95.3245   68.7031    5.6433 C.3      19        0    0.0000
    116 C          96.2222   68.3992    6.8478 C.3      19        0    0.0000
    117 H          94.2973   68.8935    5.9783 H        19        0    0.0000
    118 H          95.2822   67.8329    4.9766 H        19        0    0.0000
    119 H          97.2544   68.7027    6.6337 H        19        0    0.0000
    120 H          95.8959   68.9835    7.7171 H        19        0    0.0000
    121 C          96.2113   66.8785    7.2282 C.3      20        0    0.0000
    122 C          95.7372   66.6429    8.6665 C.3      20        0    0.0000
    123 H          95.5611   66.3428    6.5253 H        20        0    0.0000
    124 H          97.2218   66.4731    7.0941 H        20        0    0.0000
    125 H          96.5452   66.8743    9.3716 H        20        0    0.0000
    126 H          94.9076   67.3200    8.9048 H        20        0    0.0000
    127 C          95.2678   65.1660    8.9030 C.3      21        0    0.0000
    128 C          95.7439   64.6140   10.2512 C.3      21        0    0.0000
    129 H          94.1727   65.1298    8.8473 H        21        0    0.0000
    130 H          95.6457   64.5396    8.0854 H        21        0    0.0000
    131 H          96.7947   64.8820   10.4174 H        21        0    0.0000
    132 H          95.1698   65.0688   11.0678 H        21        0    0.0000
    133 C          95.6000   63.0554   10.3393 C.3      22        0    0.0000
    134 C          95.5409   62.5585   11.7879 C.3      22        0    0.0000
    135 H          94.6935   62.7530    9.8005 H        22        0    0.0000
    136 H          96.4462   62.5921    9.8169 H        22        0    0.0000
    137 H          96.5008   62.7395   12.2872 H        22        0    0.0000
    138 H          94.7836   63.1211   12.3479 H        22        0    0.0000
    139 C          95.2045   61.0301   11.8785 C.3      23        0    0.0000
    140 C          96.2378   60.2559   12.7042 C.3      23        0    0.0000
    141 H          94.2067   60.9131   12.3192 H        23        0    0.0000
    142 H          95.1504   60.6192   10.8627 H        23        0    0.0000
    143 H          96.7898   60.9437   13.3567 H        23        0    0.0000
    144 H          95.7324   59.5365   13.3604 H        23        0    0.0000
    145 C          97.2617   59.4842   11.8021 C.3      24        0    0.0000
    146 C          98.7082   59.6742   12.2720 C.3      24        0    0.0000
    147 H          97.0022   58.4183   11.8049 H        24        0    0.0000
    148 H          97.1536   59.8321   10.7673 H        24        0    0.0000
    149 H          98.7259   59.9460   13.3347 H        24        0    0.0000
    150 H          99.2609   58.7312   12.1787 H        24        0    0.0000
    151 C          99.4577   60.7822   11.4545 C.3      25        0    0.0000
    152 C         100.8121   60.2976   10.9257 C.3      25        0    0.0000
    153 H          98.8195   61.0986   10.6202 H        25        0    0.0000
    154 H          99.5969   61.6614   12.0958 H        25        0    0.0000
    155 H         101.5690   61.0809   11.0564 H        25        0    0.0000
    156 H         101.1534   59.4302   11.5043 H        25        0    0.0000
    157 C         100.7511   59.9017    9.4102 C.3      26        0    0.0000
    158 C         101.7142   60.7313    8.5539 C.3      26        0    0.0000
    159 H         100.9860   58.8344    9.3137 H        26        0    0.0000
    160 H          99.7223   60.0315    9.0520 H        26        0    0.0000
    161 H         102.4972   61.1691    9.1854 H        26        0    0.0000
    162 H         102.2210   60.0861    7.8256 H        26        0    0.0000
    163 C         100.9823   61.8843    7.7842 C.3      27        0    0.0000
    164 C         101.1941   61.7969    6.2688 C.3      27        0    0.0000
    165 H          99.9112   61.8408    8.0175 H        27        0    0.0000
    166 H         101.3477   62.8479    8.1602 H        27        0    0.0000
    167 H         102.0109   62.4629    5.9641 H        27        0    0.0000
    168 H         101.4959   60.7799    5.9892 H        27        0    0.0000
    169 C          99.9036   62.1798    5.4655 C.3      28        0    0.0000
    170 C          99.6121   61.1929    4.3297 C.3      28        0    0.0000
    171 H          99.0539   62.2174    6.1584 H        28        0    0.0000
    172 H         100.0259   63.1925    5.0617 H        28        0    0.0000
    173 H          99.3057   61.7371    3.4278 H        28        0    0.0000
    174 H         100.5228   60.6393    4.0694 H        28        0    0.0000
    175 C          98.4881   60.1675    4.7074 C.3      29        0    0.0000
    176 C          98.1610   59.2131    3.5537 C.3      29        0    0.0000
    177 H          98.8107   59.5973    5.5873 H        29        0    0.0000
    178 H          97.5888   60.7218    5.0035 H        29        0    0.0000
    179 H          97.3072   59.5949    2.9802 H        29        0    0.0000
    180 H          99.0081   59.1586    2.8588 H        29        0    0.0000
    181 C          97.8259   57.7665    4.0562 C.3      30        0    0.0000
    182 C          97.6857   56.7684    2.9015 C.3      30        0    0.0000
    183 H          98.6162   57.4388    4.7429 H        30        0    0.0000
    184 H          96.8968   57.8008    4.6386 H        30        0    0.0000
    185 H          96.8476   57.0565    2.2549 H        30        0    0.0000
    186 H          98.5870   56.7875    2.2763 H        30        0    0.0000
    187 C          97.4529   55.3032    3.4078 C.3      31        0    0.0000
    188 C          97.2164   54.3211    2.2551 C.3      31        0    0.0000
    189 H          98.3242   54.9897    3.9962 H        31        0    0.0000
    190 H          96.5935   55.2969    4.0896 H        31        0    0.0000
    191 H          96.5725   54.7810    1.4952 H        31        0    0.0000
    192 H          98.1670   54.0846    1.7613 H        31        0    0.0000
    193 C          96.5525   52.9859    2.7389 C.3      32        0    0.0000
    194 C          95.9989   52.1572    1.5745 C.3      32        0    0.0000
    195 H          97.2964   52.4026    3.2956 H        32        0    0.0000
    196 H          95.7482   53.2266    3.4451 H        32        0    0.0000
    197 H          95.7976   52.8062    0.7132 H        32        0    0.0000
    198 H          96.7451   51.4224    1.2477 H        32        0    0.0000
    199 C          94.6797   51.4018    1.9573 C.3      33        0    0.0000
    200 C          93.6757   51.3634    0.8000 C.3      33        0    0.0000
    201 H          94.9343   50.3811    2.2684 H        33        0    0.0000
    202 H          94.2306   51.8940    2.8288 H        33        0    0.0000
    203 H          93.9053   52.1554    0.0763 H        33        0    0.0000
    204 H          93.7584   50.4111    0.2616 H        33        0    0.0000
    205 C          92.1971   51.5400    1.2901 C.3      34        0    0.0000
    206 C          91.2115   51.6784    0.1246 C.3      34        0    0.0000
    207 H          91.9255   50.6781    1.9121 H        34        0    0.0000
    208 H          92.1421   52.4248    1.9363 H        34        0    0.0000
    209 H          91.6377   52.3233   -0.6539 H        34        0    0.0000
    210 H          91.0365   50.6993   -0.3384 H        34        0    0.0000
    211 C          89.8351   52.2761    0.5783 C.3      35        0    0.0000
    212 C          88.8670   52.4611   -0.5954 C.3      35        0    0.0000
    213 H          89.3918   51.6117    1.3304 H        35        0    0.0000
    214 H          90.0136   53.2383    1.0740 H        35        0    0.0000
    215 H          87.9240   51.9391   -0.3911 H        35        0    0.0000
    216 H          88.6197   53.5232   -0.7152 H        35        0    0.0000
    217 C          89.4593   51.9251   -1.9443 C.3      36        0    0.0000
    218 C          88.6063   52.3255   -3.1530 C.3      36        0    0.0000
    219 H          90.4800   52.3102   -2.0601 H        36        0    0.0000
    220 H          89.5395   50.8325   -1.8858 H        36        0    0.0000
    221 H          87.6916   51.7205   -3.1849 H        36        0    0.0000
    222 H          88.2890   53.3715   -3.0596 H        36        0    0.0000
    223 C          89.3757   52.1498   -4.5075 C.3      37        0    0.0000
    224 C          88.4776   52.4049   -5.7230 C.3      37        0    0.0000
    225 H          90.2304   52.8374   -4.5204 H        37        0    0.0000
    226 H          89.7878   51.1340   -4.5509 H        37        0    0.0000
    227 H          87.6056   51.7399   -5.6926 H        37        0    0.0000
    228 H          88.0919   53.4316   -5.6968 H        37        0    0.0000
    229 C          89.2346   52.1840   -7.0778 C.3      38        0    0.0000
    230 C          88.3368   52.4397   -8.2933 C.3      38        0    0.0000
    231 H          90.1069   52.8486   -7.1080 H        38        0    0.0000
    232 H          89.6200   51.1571   -7.1042 H        38        0    0.0000
    233 H          87.4644   51.7752   -8.2630 H        38        0    0.0000
    234 H          87.9516   53.4666   -8.2670 H        38        0    0.0000
    235 C          89.0937   52.2185   -9.6481 C.3      39        0    0.0000
    236 C          88.1991   52.4854  -10.8636 C.3      39        0    0.0000
    237 H          89.9708   52.8769   -9.6748 H        39        0    0.0000
    238 H          89.4716   51.1890   -9.6780 H        39        0    0.0000
    239 H          87.3229   51.8257  -10.8380 H        39        0    0.0000
    240 H          87.8197   53.5143  -10.8328 H        39        0    0.0000
    241 C          88.9568   52.2666  -12.2185 C.3      40        0    0.0000
    242 C          88.0597   52.5252  -13.4340 C.3      40        0    0.0000
    243 H          89.8294   52.9309  -12.2468 H        40        0    0.0000
    244 H          89.3415   51.2397  -12.2466 H        40        0    0.0000
    245 H          87.1854   51.8633  -13.4038 H        40        0    0.0000
    246 H          87.6776   53.5533  -13.4076 H        40        0    0.0000
    247 C          88.8160   52.3019  -14.7888 C.3      41        0    0.0000
    248 C          87.9238   52.5766  -16.0043 C.3      41        0    0.0000
    249 H          89.6972   52.9550  -14.8137 H        41        0    0.0000
    250 H          89.1876   51.2702  -14.8204 H        41        0    0.0000
    251 H          87.0440   51.9216  -15.9808 H        41        0    0.0000
    252 H          87.5499   53.6075  -15.9712 H        41        0    0.0000
    253 C          88.6812   52.3570  -17.3591 C.3      42        0    0.0000
    254 C          87.7810   52.6044  -18.5746 C.3      42        0    0.0000
    255 H          89.5494   53.0269  -17.3914 H        42        0    0.0000
    256 H          89.0728   51.3325  -17.3833 H        42        0    0.0000
    257 H          86.9104   51.9377  -18.5398 H        42        0    0.0000
    258 H          87.3931   53.6304  -18.5528 H        42        0    0.0000
    259 C          88.5366   52.3786  -19.9293 C.3      43        0    0.0000
    260 C          87.6475   52.6630  -21.1449 C.3      43        0    0.0000
    261 H          89.4228   53.0249  -19.9520 H        43        0    0.0000
    262 H          88.9003   51.3441  -19.9632 H        43        0    0.0000
    263 H          86.7631   52.0142  -21.1241 H        43        0    0.0000
    264 H          87.2809   53.6965  -21.1092 H        43        0    0.0000
    265 C          88.4046   52.4420  -22.4996 C.3      44        0    0.0000
    266 C          87.5066   52.6967  -23.7152 C.3      44        0    0.0000
    267 H          89.2765   53.1071  -22.5300 H        44        0    0.0000
    268 H          88.7905   51.4153  -22.5256 H        44        0    0.0000
    269 H          86.6328   52.0342  -23.6828 H        44        0    0.0000
    270 H          87.1237   53.7245  -23.6912 H        44        0    0.0000
    271 C          88.2622   52.4705  -25.0699 C.3      45        0    0.0000
    272 C          87.3680   52.7384  -26.2855 C.3      45        0    0.0000
    273 H          89.1416   53.1259  -25.0980 H        45        0    0.0000
    274 H          88.6366   51.4397  -25.0982 H        45        0    0.0000
    275 H          86.4907   52.0803  -26.2594 H        45        0    0.0000
    276 H          86.9906   53.7680  -26.2552 H        45        0    0.0000
    277 C          88.1253   52.5175  -27.6403 C.3      46        0    0.0000
    278 C          87.2210   52.7500  -28.8557 C.3      46        0    0.0000
    279 H          88.9876   53.1946  -27.6779 H        46        0    0.0000
    280 H          88.5256   51.4962  -27.6591 H        46        0    0.0000
    281 H          86.3562   52.0763  -28.8155 H        46        0    0.0000
    282 H          86.8246   53.7728  -28.8395 H        46        0    0.0000
    283 C          87.9764   52.5224  -30.2104 C.3      47        0    0.0000
    284 C          87.1364   52.9426  -31.4215 C.3      47        0    0.0000
    285 H          88.9165   53.0874  -30.1903 H        47        0    0.0000
    286 H          88.2476   51.4623  -30.2902 H        47        0    0.0000
    287 H          86.2062   52.3619  -31.4538 H        47        0    0.0000
    288 H          86.8468   53.9968  -31.3309 H        47        0    0.0000
    289 C          87.9034   52.7438  -32.7742 C.3      48        0    0.0000
    290 C          86.9610   52.3881  -33.9294 C.3      48        0    0.0000
    291 H          88.4536   53.6638  -33.0072 H        48        0    0.0000
    292 H          88.6527   51.9532  -32.6430 H        48        0    0.0000
    293 H          86.3303   51.5347  -33.6512 H        48        0    0.0000
    294 H          86.2839   53.2267  -34.1343 H        48        0    0.0000
    295 C          87.7391   52.0343  -35.2435 C.3      49        0    0.0000
    296 C          87.2085   52.8041  -36.4579 C.3      49        0    0.0000
    297 H          88.8035   52.2544  -35.0943 H        49        0    0.0000
    298 H          87.6625   50.9542  -35.4199 H        49        0    0.0000
    299 H          86.2415   52.3916  -36.7716 H        49        0    0.0000
    300 H          87.0316   53.8532  -36.1903 H        49        0    0.0000
    301 C          88.1979   52.7524  -37.6728 C.3      50        0    0.0000
    302 C          87.5366   52.1928  -38.9371 C.3      50        0    0.0000
    303 H          88.5774   53.7640  -37.8630 H        50        0    0.0000
    304 H          89.0639   52.1377  -37.3976 H        50        0    0.0000
    305 H          86.8770   51.3554  -38.6774 H        50        0    0.0000
    306 H          86.9043   52.9595  -39.4017 H        50        0    0.0000
    307 C          88.5887   51.6997  -39.9894 C.3      51        0    0.0000
    308 C          88.5597   52.5341  -41.2747 C.3      51        0    0.0000
    309 H          89.5873   51.7406  -39.5369 H        51        0    0.0000
    310 H          88.3905   50.6458  -40.2205 H        51        0    0.0000
    311 H          87.9485   52.0323  -42.0351 H        51        0    0.0000
    312 H          88.0878   53.5056  -41.0819 H        51        0    0.0000
    313 C          89.9943   52.7761  -41.8584 C.3      52        0    0.0000
    314 C          90.2351   54.2468  -42.2167 C.3      52        0    0.0000
    315 H          90.7364   52.4418  -41.1229 H        52        0    0.0000
    316 H          90.1254   52.1462  -42.7470 H        52        0    0.0000
    317 H          89.4930   54.5812  -42.9522 H        52        0    0.0000
    318 H          90.1040   54.8767  -41.3281 H        52        0    0.0000
    319 H          91.2326   54.4151  -42.6225 H        52        0    0.0000
    320 H          99.2798   70.5087  -40.4349 H         0        0    0.0000
@<TRIPOS>BOND
     1     1     2      1
     2     1     3      1
     3     1     4      1
     4     1   320      H
     5     2     5      1
     6     2     6      1
     7     2     7      1
     8     7     8      1
     9     7     9      1
    10     7    10      1
    11     8    11      1
    12     8    12      1
    13     8    13      1
    14    13    14      1
    15    13    15      1
    16    13    16      1
    17    14    17      1
    18    14    18      1
    19    14    19      1
    20    19    20      1
    21    19    21      1
    22    19    22      1
    23    20    23      1
    24    20    24      1
    25    20    25      1
    26    25    26      1
    27    25    27      1
    28    25    28      1
    29    26    29      1
    30    26    30      1
    31    26    31      1
    32    31    32      1
    33    31    33      1
    34    31    34      1
    35    32    35      1
    36    32    36      1
    37    32    37      1
    38    37    38      1
    39    37    39      1
    40    37    40      1
    41    38    41      1
    42    38    42      1
    43    38    43      1
    44    43    44      1
    45    43    45      1
    46    43    46      1
    47    44    47      1
    48    44    48      1
    49    44    49      1
    50    49    50      1
    51    49    51      1
    52    49    52      1
    53    50    53      1
    54    50    54      1
    55    50    55      1
    56    55    56      1
    57    55    57      1
    58    55    58      1
    59    56    59      1
    60    56    60      1
    61    56    61      1
    62    61    62      1
    63    61    63      1
    64    61    64      1
    65    62    65      1
    66    62    66      1
    67    62    67      1
    68    67    68      1
    69    67    69      1
    70    67    70      1
    71    68    71      1
    72    68    72      1
    73    68    73      1
    74    73    74      1
    75    73    75      1
    76    73    76      1
    77    74    77      1
    78    74    78      1
    79    74    79      1
    80    79    80      1
    81    79    81      1
    82    79    82      1
    83    80    83      1
    84    80    84      1
    85    80    85      1
    86    85    86      1
    87    85    87      1
    88    85    88      1
    89    86    89      1
    90    86    90      1
    91    86    91      1
    92    91    92      1
    93    91    93      1
    94    91    94      1
    95    92    95      1
    96    92    96      1
    97    92    97      1
    98    97    98      1
    99    97    99      1
   100    97   100      1
   101    98   101      1
   102    98   102      1
   103    98   103      1
   104   103   104      1
   105   103   105      1
   106   103   106      1
   107   104   107      1
   108   104   108      1
   109   104   109      1
   110   109   110      1
   111   109   111      1
   112   109   112      1
   113   110   113      1
   114   110   114      1
   115   110   115      1
   116   115   116      1
   117   115   117      1
   118   115   118      1
   119   116   119      1
   120   116   120      1
   121   116   121      1
   122   121   122      1
   123   121   123      1
   124   121   124      1
   125   122   125      1
   126   122   126      1
   127   122   127      1
   128   127   128      1
   129   127   129      1
   130   127   130      1
   131   128   131      1
   132   128   132      1
   133   128   133      1
   134   133   134      1
   135   133   135      1
   136   133   136      1
   137   134   137      1
   138   134   138      1
   139   134   139      1
   140   139   140      1
   141   139   141      1
   142   139   142      1
   143   140   143      1
   144   140   144      1
   145   140   145      1
   146   145   146      1
   147   145   147      1
   148   145   148      1
   149   146   149      1
   150   146   150      1
   151   146   151      1
   152   151   152      1
   153   151   153      1
   154   151   154      1
   155   152   155      1
   156   152   156      1
   157   152   157      1
   158   157   158      1
   159   157   159      1
   160   157   160      1
   161   158   161      1
   162   158   162      1
   163   158   163      1
   164   163   164      1
   165   163   165      1
   166   163   166      1
   167   164   167      1
   168   164   168      1
   169   164   169      1
   170   169   170      1
   171   169   171      1
   172   169   172      1
   173   170   173      1
   174   170   174      1
   175   170   175      1
   176   175   176      1
   177   175   177      1
   178   175   178      1
   179   176   179      1
   180   176   180      1
   181   176   181      1
   182   181   182      1
   183   181   183      1
   184   181   184      1
   185   182   185      1
   186   182   186      1
   187   182   187      1
   188   187   188      1
   189   187   189      1
   190   187   190      1
   191   188   191      1
   192   188   192      1
   193   188   193      1
   194   193   194      1
   195   193   195      1
   196   193   196      1
   197   194   197      1
   198   194   198      1
   199   194   199      1
   200   199   200      1
   201   199   201      1
   202   199   202      1
   203   200   203      1
   204   200   204      1
   205   200   205      1
   206   205   206      1
   207   205   207      1
   208   205   208      1
   209   206   209      1
   210   206   210      1
   211   206   211      1
   212   211   212      1
   213   211   213      1
   214   211   214      1
   215   212   215      1
   216   212   216      1
   217   212   217      1
   218   217   218      1
   219   217   219      1
   220   217   220      1
   221   218   221      1
   222   218   222      1
   223   218   223      1
   224   223   224      1
   225   223   225      1
   226   223   226      1
   227   224   227      1
   228   224   228      1
   229   224   229      1
   230   229   230      1
   231   229   231      1
   232   229   232      1
   233   230   233      1
   234   230   234      1
   235   230   235      1
   236   235   236      1
   237   235   237      1
   238   235   238      1
   239   236   239      1
   240   236   240      1
   241   236   241      1
   242   241   242      1
   243   241   243      1
   244   241   244      1
   245   242   245      1
   246   242   246      1
   247   242   247      1
   248   247   248      1
   249   247   249      1
   250   247   250      1
   251   248   251      1
   252   248   252      1
   253   248   253      1
   254   253   254      1
   255   253   255      1
   256   253   256      1
   257   254   257      1
   258   254   258      1
   259   254   259      1
   260   259   260      1
   261   259   261      1
   262   259   262      1
   263   260   263      1
   264   260   264      1
   265   260   265      1
   266   265   266      1
   267   265   267      1
   268   265   268      1
   269   266   269      1
   270   266   270      1
   271   266   271      1
   272   271   272      1
   273   271   273      1
   274   271   274      1
   275   272   275      1
   276   272   276      1
   277   272   277      1
   278   277   278      1
   279   277   279      1
   280   277   280      1
   281   278   281      1
   282   278   282      1
   283   278   283      1
   284   283   284      1
   285   283   285      1
   286   283   286      1
   287   284   287      1
   288   284   288      1
   289   284   289      1
   290   289   290      1
   291   289   291      1
   292   289   292      1
   293   290   293      1
   294   290   294      1
   295   290   295      1
   296   295   296      1
   297   295   297      1
   298   295   298      1
   299   296   299      1
   300   296   300      1
   301   296   301      1
   302   301   302      1
   303   301   303      1
   304   301   304      1
   305   302   305      1
   306   302   306      1
   307   302   307      1
   308   307   308      1
   309   307   309      1
   310   307   310      1
   311   308   311      1
   312   308   312      1
   313   308   313      1
   314   313   314      1
   315   313   315      1
   316   313   316      1
   317   314   317      1
   318   314   318      1
   319   314   319      H
