###
### Created by PolyChef-cpp17 on Thu Feb 27 19:40:29 2025
###

@<TRIPOS>MOLECULE
NO_INFO
392 391 1 0 0
SMALL
USER_CHARGES


@<TRIPOS>ATOM
      1 C          99.2798  174.4287  120.6551 C.3       0        0    0.0000
      2 C          98.4513  173.2775  120.0742 C.3       0        0    0.0000
      3 H          98.8875  175.3902  120.3015 H         0        0    0.0000
      4 H         100.3162  174.3620  120.3014 H         0        0    0.0000
      5 H          98.4070  172.4474  120.7901 H         0        0    0.0000
      6 H          97.4176  173.6049  119.9071 H         0        0    0.0000
      7 C          99.0382  172.7469  118.7209 C.3       1        0    0.0000
      8 C          99.6367  173.8704  117.8672 C.3       1        0    0.0000
      9 H          99.8037  171.9920  118.9393 H         1        0    0.0000
     10 H          98.2415  172.2364  118.1659 H         1        0    0.0000
     11 H          98.9477  174.7234  117.8314 H         1        0    0.0000
     12 H         100.5658  174.2348  118.3226 H         1        0    0.0000
     13 C          99.9410  173.4050  116.4015 C.3       2        0    0.0000
     14 C          99.8918  174.5654  115.4015 C.3       2        0    0.0000
     15 H         100.9301  172.9309  116.3792 H         2        0    0.0000
     16 H          99.2152  172.6328  116.1177 H         2        0    0.0000
     17 H          98.9750  175.1497  115.5482 H         2        0    0.0000
     18 H         100.7322  175.2486  115.5764 H         2        0    0.0000
     19 C          99.9434  174.0711  113.9147 C.3       3        0    0.0000
     20 C          99.8286  175.2264  112.9142 C.3       3        0    0.0000
     21 H         100.8828  173.5274  113.7553 H         3        0    0.0000
     22 H          99.1315  173.3513  113.7530 H         3        0    0.0000
     23 H          98.8945  175.7771  113.0811 H         3        0    0.0000
     24 H         100.6471  175.9404  113.0684 H         3        0    0.0000
     25 C          99.8640  174.7306  111.4275 C.3       4        0    0.0000
     26 C          99.8790  175.8923  110.4279 C.3       4        0    0.0000
     27 H         100.7512  174.1010  111.2858 H         4        0    0.0000
     28 H          98.9915  174.0905  111.2473 H         4        0    0.0000
     29 H          98.9814  176.5100  110.5556 H         4        0    0.0000
     30 H         100.7401  176.5440  110.6214 H         4        0    0.0000
     31 C          99.9442  175.3968  108.9421 C.3       5        0    0.0000
     32 C          98.8879  176.0697  108.0585 C.3       5        0    0.0000
     33 H         100.9479  175.5962  108.5465 H         5        0    0.0000
     34 H          99.8098  174.3081  108.9261 H         5        0    0.0000
     35 H          97.9312  176.1255  108.5924 H         5        0    0.0000
     36 H          99.1855  177.1020  107.8365 H         5        0    0.0000
     37 C          98.6690  175.3053  106.7076 C.3       6        0    0.0000
     38 C          99.0312  176.1625  105.4898 C.3       6        0    0.0000
     39 H          99.2742  174.3903  106.7169 H         6        0    0.0000
     40 H          97.6204  174.9888  106.6463 H         6        0    0.0000
     41 H          98.1545  176.7312  105.1559 H         6        0    0.0000
     42 H          99.7986  176.8978  105.7621 H         6        0    0.0000
     43 C          99.5601  175.3001  104.2923 C.3       7        0    0.0000
     44 C          98.9914  175.7640  102.9467 C.3       7        0    0.0000
     45 H         100.6558  175.3524  104.2757 H         7        0    0.0000
     46 H          99.2974  174.2499  104.4697 H         7        0    0.0000
     47 H          97.9054  175.8988  103.0237 H         7        0    0.0000
     48 H          99.4119  176.7408  102.6773 H         7        0    0.0000
     49 C          99.2937  174.7478  101.7920 C.3       8        0    0.0000
     50 C          99.1201  175.3763  100.4049 C.3       8        0    0.0000
     51 H         100.3182  174.3733  101.9097 H         8        0    0.0000
     52 H          98.6278  173.8826  101.8990 H         8        0    0.0000
     53 H          98.0758  175.6782  100.2568 H         8        0    0.0000
     54 H          99.7257  176.2877  100.3264 H         8        0    0.0000
     55 C          99.5308  174.3958   99.2528 C.3       9        0    0.0000
     56 C          99.2875  174.9971   97.8641 C.3       9        0    0.0000
     57 H         100.5903  174.1365   99.3700 H         9        0    0.0000
     58 H          98.9641  173.4630   99.3634 H         9        0    0.0000
     59 H          98.2310  175.2709   97.7526 H         9        0    0.0000
     60 H          99.8666  175.9216   97.7478 H         9        0    0.0000
     61 C          99.6775  174.0082   96.7119 C.3      10        0    0.0000
     62 C          99.4442  174.6134   95.3233 C.3      10        0    0.0000
     63 H         100.7319  173.7283   96.8279 H        10        0    0.0000
     64 H          99.0929  173.0867   96.8238 H        10        0    0.0000
     65 H          98.3900  174.8945   95.2078 H        10        0    0.0000
     66 H         100.0299  175.5342   95.2109 H        10        0    0.0000
     67 C          99.8324  173.6238   94.1711 C.3      11        0    0.0000
     68 C          99.5999  174.2293   92.7824 C.3      11        0    0.0000
     69 H         100.8863  173.3422   94.2870 H        11        0    0.0000
     70 H          99.2462  172.7033   94.2830 H        11        0    0.0000
     71 H          98.5462  174.5122   92.6670 H        11        0    0.0000
     72 H         100.1872  175.1491   92.6700 H        11        0    0.0000
     73 C          99.9864  173.2391   91.6302 C.3      12        0    0.0000
     74 C          99.7627  173.8480   90.2416 C.3      12        0    0.0000
     75 H         101.0382  172.9509   91.7496 H        12        0    0.0000
     76 H          99.3942  172.3220   91.7387 H        12        0    0.0000
     77 H          98.7145  174.1515   90.1284 H        12        0    0.0000
     78 H         100.3677  174.7560   90.1271 H        12        0    0.0000
     79 C         100.1269  172.8494   89.0894 C.3      13        0    0.0000
     80 C          99.9055  173.4592   87.7008 C.3      13        0    0.0000
     81 H         101.1745  172.5446   89.2037 H        13        0    0.0000
     82 H          99.5206  171.9422   89.2029 H        13        0    0.0000
     83 H          98.8573  173.7617   87.5856 H        13        0    0.0000
     84 H         100.5098  174.3678   87.5882 H        13        0    0.0000
     85 C         100.2731  172.4618   86.5485 C.3      14        0    0.0000
     86 C         100.0439  173.0686   85.1599 C.3      14        0    0.0000
     87 H         101.3230  172.1640   86.6602 H        14        0    0.0000
     88 H          99.6731  171.5508   86.6646 H        14        0    0.0000
     89 H          98.9874  173.3373   85.0365 H        14        0    0.0000
     90 H         100.6192  173.9969   85.0554 H        14        0    0.0000
     91 C         100.4537  172.0877   84.0078 C.3      15        0    0.0000
     92 C         100.2222  172.6937   82.6192 C.3      15        0    0.0000
     93 H         101.5107  171.8205   84.1302 H        15        0    0.0000
     94 H          99.8796  171.1588   84.1134 H        15        0    0.0000
     95 H          99.1670  172.9689   82.5000 H        15        0    0.0000
     96 H         100.8031  173.6180   82.5105 H        15        0    0.0000
     97 C         100.6207  171.7081   81.4670 C.3      16        0    0.0000
     98 C         100.3741  172.3080   80.0784 C.3      16        0    0.0000
     99 H         101.6790  171.4422   81.5794 H        16        0    0.0000
    100 H         100.0484  170.7793   81.5826 H        16        0    0.0000
    101 H          99.3146  172.5683   79.9637 H        16        0    0.0000
    102 H         100.9415  173.2401   79.9651 H        16        0    0.0000
    103 C         100.7807  171.3258   78.9262 C.3      17        0    0.0000
    104 C          99.6834  171.1896   77.8648 C.3      17        0    0.0000
    105 H         101.7080  171.6869   78.4644 H        17        0    0.0000
    106 H         101.0068  170.3445   79.3614 H        17        0    0.0000
    107 H          98.7172  171.5016   78.2804 H        17        0    0.0000
    108 H          99.8929  171.8568   77.0194 H        17        0    0.0000
    109 C          99.5531  169.7219   77.3299 C.3      18        0    0.0000
    110 C          98.1003  169.2336   77.3212 C.3      18        0    0.0000
    111 H          99.9714  169.6763   76.3167 H        18        0    0.0000
    112 H         100.1680  169.0620   77.9545 H        18        0    0.0000
    113 H          97.4957  169.8396   78.0073 H        18        0    0.0000
    114 H          97.6664  169.3619   76.3217 H        18        0    0.0000
    115 C          97.9774  167.7269   77.7358 C.3      19        0    0.0000
    116 C          97.2817  166.8836   76.6616 C.3      19        0    0.0000
    117 H          98.9815  167.3313   77.9327 H        19        0    0.0000
    118 H          97.4233  167.6642   78.6806 H        19        0    0.0000
    119 H          96.1998  167.0641   76.6839 H        19        0    0.0000
    120 H          97.6303  167.1819   75.6650 H        19        0    0.0000
    121 C          97.5421  165.3493   76.8497 C.3      20        0    0.0000
    122 C          96.3237  164.5021   76.4664 C.3      20        0    0.0000
    123 H          98.4077  165.0603   76.2409 H        20        0    0.0000
    124 H          97.8160  165.1627   77.8955 H        20        0    0.0000
    125 H          95.4208  164.9052   76.9416 H        20        0    0.0000
    126 H          96.1578  164.5503   75.3830 H        20        0    0.0000
    127 C          96.4883  163.0007   76.8861 C.3      21        0    0.0000
    128 C          96.3250  162.0446   75.6994 C.3      21        0    0.0000
    129 H          97.4767  162.8676   77.3431 H        21        0    0.0000
    130 H          95.7485  162.7672   77.6618 H        21        0    0.0000
    131 H          95.2884  161.6898   75.6420 H        21        0    0.0000
    132 H          96.5296  162.5728   74.7598 H        21        0    0.0000
    133 C          97.2786  160.8045   75.7999 C.3      22        0    0.0000
    134 C          96.5276  159.5234   76.1791 C.3      22        0    0.0000
    135 H          97.7879  160.6711   74.8374 H        22        0    0.0000
    136 H          98.0582  161.0172   76.5419 H        22        0    0.0000
    137 H          95.6195  159.7724   76.7421 H        22        0    0.0000
    138 H          96.2022  158.9962   75.2737 H        22        0    0.0000
    139 C          97.4063  158.5526   77.0410 C.3      23        0    0.0000
    140 C          97.3910  157.1192   76.4985 C.3      23        0    0.0000
    141 H          98.4345  158.9344   77.0659 H        23        0    0.0000
    142 H          97.0396  158.5675   78.0748 H        23        0    0.0000
    143 H          96.3569  156.7831   76.3530 H        23        0    0.0000
    144 H          97.8750  157.0842   75.5146 H        23        0    0.0000
    145 C          98.1191  156.1139   77.4559 C.3      24        0    0.0000
    146 C          98.0014  154.6638   76.9738 C.3      24        0    0.0000
    147 H          99.1754  156.4003   77.5324 H        24        0    0.0000
    148 H          97.6926  156.2116   78.4619 H        24        0    0.0000
    149 H          96.9838  154.4687   76.6133 H        24        0    0.0000
    150 H          98.6745  154.4940   76.1243 H        24        0    0.0000
    151 C          98.3437  153.6325   78.1037 C.3      25        0    0.0000
    152 C          98.2094  152.1822   77.6265 C.3      25        0    0.0000
    153 H          99.3658  153.8196   78.4555 H        25        0    0.0000
    154 H          97.6789  153.8104   78.9581 H        25        0    0.0000
    155 H          98.6262  151.4991   78.3770 H        25        0    0.0000
    156 H          97.1501  151.9194   77.5151 H        25        0    0.0000
    157 C          98.9373  151.9365   76.2600 C.3      26        0    0.0000
    158 C          98.5913  150.5717   75.6547 C.3      26        0    0.0000
    159 H          98.6615  152.7378   75.5634 H        26        0    0.0000
    160 H         100.0203  152.0146   76.4172 H        26        0    0.0000
    161 H          98.6564  149.7918   76.4235 H        26        0    0.0000
    162 H          97.5554  150.5722   75.2934 H        26        0    0.0000
    163 C          99.5405  150.1907   74.4668 C.3      27        0    0.0000
    164 C          99.7926  148.6810   74.3858 C.3      27        0    0.0000
    165 H          99.0957  150.5485   73.5299 H        27        0    0.0000
    166 H         100.4911  150.7247   74.5884 H        27        0    0.0000
    167 H         100.0482  148.2886   75.3779 H        27        0    0.0000
    168 H          98.8788  148.1636   74.0682 H        27        0    0.0000
    169 C         100.9480  148.3242   73.3882 C.3      28        0    0.0000
    170 C         102.0774  147.5392   74.0643 C.3      28        0    0.0000
    171 H         100.5305  147.7423   72.5572 H        28        0    0.0000
    172 H         101.3415  149.2527   72.9562 H        28        0    0.0000
    173 H         102.3656  148.0280   75.0032 H        28        0    0.0000
    174 H         101.7307  146.5321   74.3270 H        28        0    0.0000
    175 C         103.3446  147.4149   73.1498 C.3      29        0    0.0000
    176 C         104.2742  146.2811   73.5964 C.3      29        0    0.0000
    177 H         103.0192  147.2491   72.1153 H        29        0    0.0000
    178 H         103.8840  148.3701   73.1611 H        29        0    0.0000
    179 H         104.8791  146.6056   74.4521 H        29        0    0.0000
    180 H         103.6830  145.4217   73.9363 H        29        0    0.0000
    181 C         105.2333  145.8122   72.4485 C.3      30        0    0.0000
    182 C         106.6984  146.1559   72.7390 C.3      30        0    0.0000
    183 H         105.1206  144.7293   72.3137 H        30        0    0.0000
    184 H         104.9161  146.2813   71.5089 H        30        0    0.0000
    185 H         106.7554  146.9957   73.4425 H        30        0    0.0000
    186 H         107.1955  145.3057   73.2224 H        30        0    0.0000
    187 C         107.4897  146.5313   71.4389 C.3      31        0    0.0000
    188 C         108.7545  145.6835   71.2635 C.3      31        0    0.0000
    189 H         106.8282  146.4035   70.5730 H        31        0    0.0000
    190 H         107.7528  147.5955   71.4799 H        31        0    0.0000
    191 H         109.5484  146.0512   71.9254 H        31        0    0.0000
    192 H         108.5552  144.6454   71.5570 H        31        0    0.0000
    193 C         109.2802  145.6992   69.7868 C.3      32        0    0.0000
    194 C         110.5482  144.8561   69.6126 C.3      32        0    0.0000
    195 H         108.4877  145.3277   69.1253 H        32        0    0.0000
    196 H         109.4755  146.7377   69.4919 H        32        0    0.0000
    197 H         111.2266  145.3400   68.8991 H        32        0    0.0000
    198 H         111.0887  144.7884   70.5649 H        32        0    0.0000
    199 C         110.2328  143.4063   69.1065 C.3      33        0    0.0000
    200 C         111.4664  142.4974   69.1423 C.3      33        0    0.0000
    201 H         109.4342  142.9811   69.7269 H        33        0    0.0000
    202 H         109.8395  143.4665   68.0842 H        33        0    0.0000
    203 H         111.1957  141.4832   68.8235 H        33        0    0.0000
    204 H         112.2212  142.8596   68.4334 H        33        0    0.0000
    205 C         112.1087  142.4236   70.5704 C.3      34        0    0.0000
    206 C         113.1531  141.3073   70.6805 C.3      34        0    0.0000
    207 H         112.5679  143.3925   70.8021 H        34        0    0.0000
    208 H         111.3123  142.2678   71.3087 H        34        0    0.0000
    209 H         113.5073  141.0237   69.6817 H        34        0    0.0000
    210 H         114.0291  141.6651   71.2356 H        34        0    0.0000
    211 C         112.5872  140.0328   71.3967 C.3      35        0    0.0000
    212 C         113.6983  139.0772   71.8455 C.3      35        0    0.0000
    213 H         111.9907  140.3486   72.2615 H        35        0    0.0000
    214 H         111.9017  139.5177   70.7123 H        35        0    0.0000
    215 H         114.2345  138.6870   70.9716 H        35        0    0.0000
    216 H         114.4358  139.6165   72.4527 H        35        0    0.0000
    217 C         113.1435  137.8704   72.6782 C.3      36        0    0.0000
    218 C         114.2209  136.8189   72.9657 C.3      36        0    0.0000
    219 H         112.7290  138.2514   73.6198 H        36        0    0.0000
    220 H         112.3104  137.4149   72.1287 H        36        0    0.0000
    221 H         114.6715  136.4755   72.0262 H        36        0    0.0000
    222 H         115.0299  137.2619   73.5596 H        36        0    0.0000
    223 C         113.6499  135.5783   73.7353 C.3      37        0    0.0000
    224 C         114.1038  134.2516   73.1166 C.3      37        0    0.0000
    225 H         113.9706  135.6339   74.7830 H        37        0    0.0000
    226 H         112.5545  135.6371   73.7376 H        37        0    0.0000
    227 H         114.3226  134.3892   72.0504 H        37        0    0.0000
    228 H         115.0353  133.9155   73.5886 H        37        0    0.0000
    229 C         113.0247  133.1248   73.2696 C.3      38        0    0.0000
    230 C         113.4166  132.0847   74.3249 C.3      38        0    0.0000
    231 H         112.0659  133.5871   73.5349 H        38        0    0.0000
    232 H         112.8813  132.6381   72.2969 H        38        0    0.0000
    233 H         114.4659  131.7928   74.1938 H        38        0    0.0000
    234 H         113.3333  132.5182   75.3293 H        38        0    0.0000
    235 C         112.5218  130.7996   74.2535 C.3      39        0    0.0000
    236 C         112.9237  129.7531   75.2987 C.3      39        0    0.0000
    237 H         111.4736  131.0902   74.3959 H        39        0    0.0000
    238 H         112.5962  130.3725   73.2457 H        39        0    0.0000
    239 H         112.6370  130.0936   76.3014 H        39        0    0.0000
    240 H         112.3843  128.8150   75.1184 H        39        0    0.0000
    241 C         114.4638  129.4612   75.2854 C.3      40        0    0.0000
    242 C         114.8793  128.4837   76.3904 C.3      40        0    0.0000
    243 H         114.7387  129.0573   74.3031 H        40        0    0.0000
    244 H         115.0044  130.4090   75.3988 H        40        0    0.0000
    245 H         115.8129  128.8198   76.8584 H        40        0    0.0000
    246 H         114.1193  128.4650   77.1813 H        40        0    0.0000
    247 C         115.0815  127.0264   75.8493 C.3      41        0    0.0000
    248 C         115.4161  126.0329   76.9673 C.3      41        0    0.0000
    249 H         114.1685  126.7128   75.3282 H        41        0    0.0000
    250 H         115.8840  127.0351   75.1013 H        41        0    0.0000
    251 H         116.5014  125.8841   77.0261 H        41        0    0.0000
    252 H         115.1006  126.4376   77.9370 H        41        0    0.0000
    253 C         114.7263  124.6417   76.7519 C.3      42        0    0.0000
    254 C         114.9620  123.6881   77.9285 C.3      42        0    0.0000
    255 H         113.6506  124.7993   76.6051 H        42        0    0.0000
    256 H         115.1089  124.1971   75.8249 H        42        0    0.0000
    257 H         115.8439  123.0645   77.7364 H        42        0    0.0000
    258 H         115.1734  124.2606   78.8401 H        42        0    0.0000
    259 C         113.7307  122.7544   78.1923 C.3      43        0    0.0000
    260 C         113.6008  122.3680   79.6697 C.3      43        0    0.0000
    261 H         112.8204  123.2661   77.8559 H        43        0    0.0000
    262 H         113.8318  121.8531   77.5751 H        43        0    0.0000
    263 H         114.3465  121.6051   79.9259 H        43        0    0.0000
    264 H         113.8084  123.2375   80.3057 H        43        0    0.0000
    265 C         112.1747  121.8171   80.0166 C.3      44        0    0.0000
    266 C         111.9200  121.7750   81.5273 C.3      44        0    0.0000
    267 H         111.4231  122.4477   79.5258 H        44        0    0.0000
    268 H         112.0703  120.8121   79.5893 H        44        0    0.0000
    269 H         112.6101  121.0689   82.0056 H        44        0    0.0000
    270 H         112.1190  122.7588   81.9700 H        44        0    0.0000
    271 C         110.4492  121.3547   81.8703 C.3      45        0    0.0000
    272 C         110.2014  121.2884   83.3813 C.3      45        0    0.0000
    273 H         109.7596  122.0713   81.4072 H        45        0    0.0000
    274 H         110.2443  120.3791   81.4123 H        45        0    0.0000
    275 H         109.1287  121.1766   83.5821 H        45        0    0.0000
    276 H         110.6949  120.4049   83.8050 H        45        0    0.0000
    277 C         110.7245  122.5649   84.1258 C.3      46        0    0.0000
    278 C         110.5614  122.4585   85.6460 C.3      46        0    0.0000
    279 H         111.7807  122.7153   83.8704 H        46        0    0.0000
    280 H         110.1816  123.4409   83.7497 H        46        0    0.0000
    281 H         111.5460  122.4382   86.1295 H        46        0    0.0000
    282 H         110.0394  123.3432   86.0312 H        46        0    0.0000
    283 C         109.7639  121.1770   86.0697 C.3      47        0    0.0000
    284 C         109.7558  120.9737   87.5888 C.3      47        0    0.0000
    285 H         108.7359  121.2605   85.6958 H        47        0    0.0000
    286 H         110.2088  120.3043   85.5758 H        47        0    0.0000
    287 H         108.7395  120.7439   87.9321 H        47        0    0.0000
    288 H         110.3809  120.1129   87.8565 H        47        0    0.0000
    289 C         110.2763  122.2355   88.3598 C.3      48        0    0.0000
    290 C         110.2742  122.0299   89.8786 C.3      48        0    0.0000
    291 H         111.2908  122.4682   88.0131 H        48        0    0.0000
    292 H         109.6481  123.0953   88.0958 H        48        0    0.0000
    293 H         111.0757  121.3380   90.1656 H        48        0    0.0000
    294 H         110.4809  122.9797   90.3871 H        48        0    0.0000
    295 C         108.9080  121.4646   90.3997 C.3      49        0    0.0000
    296 C         108.9586  121.1042   91.8886 C.3      49        0    0.0000
    297 H         108.1247  122.2113   90.2199 H        49        0    0.0000
    298 H         108.6423  120.5802   89.8074 H        49        0    0.0000
    299 H         108.0802  121.5116   92.4043 H        49        0    0.0000
    300 H         108.9201  120.0149   92.0135 H        49        0    0.0000
    301 C         110.2522  121.6476   92.5878 C.3      50        0    0.0000
    302 C         110.2445  121.3962   94.0997 C.3      50        0    0.0000
    303 H         111.1280  121.1699   92.1315 H        50        0    0.0000
    304 H         110.3385  122.7224   92.3856 H        50        0    0.0000
    305 H         110.1918  120.3192   94.3016 H        50        0    0.0000
    306 H         111.1805  121.7549   94.5454 H        50        0    0.0000
    307 C         109.0413  122.1035   94.8134 C.3      51        0    0.0000
    308 C         109.0652  121.8988   96.3322 C.3      51        0    0.0000
    309 H         109.0704  123.1746   94.5778 H        51        0    0.0000
    310 H         108.1043  121.7145   94.3961 H        51        0    0.0000
    311 H         108.2868  122.5094   96.8063 H        51        0    0.0000
    312 H         108.8368  120.8535   96.5745 H        51        0    0.0000
    313 C         110.4523  122.2716   96.9602 C.3      52        0    0.0000
    314 C         110.5642  121.8316   98.4241 C.3      52        0    0.0000
    315 H         111.2468  121.8044   96.3652 H        52        0    0.0000
    316 H         110.5961  123.3563   96.8814 H        52        0    0.0000
    317 H         111.2028  120.9430   98.5021 H        52        0    0.0000
    318 H         111.0456  122.6187   99.0177 H        52        0    0.0000
    319 C         109.1665  121.5063   99.0552 C.3      53        0    0.0000
    320 C         109.2624  121.2047  100.5548 C.3      53        0    0.0000
    321 H         108.4950  122.3569   98.8847 H        53        0    0.0000
    322 H         108.7305  120.6498   98.5263 H        53        0    0.0000
    323 H         108.2590  121.0607  100.9744 H        53        0    0.0000
    324 H         109.8087  120.2671  100.7157 H        53        0    0.0000
    325 C         109.9814  122.3508  101.3466 C.3      54        0    0.0000
    326 C         110.1872  121.9960  102.8233 C.3      54        0    0.0000
    327 H         110.9484  122.5564  100.8709 H        54        0    0.0000
    328 H         109.3861  123.2681  101.2595 H        54        0    0.0000
    329 H         111.0501  121.3275  102.9329 H        54        0    0.0000
    330 H         110.4148  122.9014  103.3995 H        54        0    0.0000
    331 C         108.9281  121.3024  103.4487 C.3      55        0    0.0000
    332 C         109.1155  120.9919  104.9378 C.3      55        0    0.0000
    333 H         108.0579  121.9553  103.3071 H        55        0    0.0000
    334 H         108.7219  120.3781  102.8948 H        55        0    0.0000
    335 H         108.1733  120.6306  105.3682 H        55        0    0.0000
    336 H         109.8492  120.1863  105.0646 H        55        0    0.0000
    337 C         109.5947  122.2442  105.7500 C.3      56        0    0.0000
    338 C         109.9455  121.8961  107.2008 C.3      56        0    0.0000
    339 H         110.4665  122.6799  105.2463 H        56        0    0.0000
    340 H         108.8044  123.0047  105.7262 H        56        0    0.0000
    341 H         110.8814  121.3248  107.2348 H        56        0    0.0000
    342 H         110.1156  122.8139  107.7772 H        56        0    0.0000
    343 C         108.8183  121.0614  107.9008 C.3      57        0    0.0000
    344 C         109.1071  120.8273  109.3876 C.3      57        0    0.0000
    345 H         107.8629  121.5873  107.7814 H        57        0    0.0000
    346 H         108.7158  120.1004  107.3816 H        57        0    0.0000
    347 H         108.2597  120.3145  109.8593 H        57        0    0.0000
    348 H         109.9773  120.1693  109.5028 H        57        0    0.0000
    349 C         109.3801  122.1653  110.1576 C.3      58        0    0.0000
    350 C         109.8218  121.9228  111.6051 C.3      58        0    0.0000
    351 H         110.1498  122.7323  109.6194 H        58        0    0.0000
    352 H         108.4688  122.7758  110.1397 H        58        0    0.0000
    353 H         110.8859  121.6576  111.6342 H        58        0    0.0000
    354 H         109.7103  122.8431  112.1916 H        58        0    0.0000
    355 C         108.9975  120.7813  112.2944 C.3      59        0    0.0000
    356 C         109.3399  120.6341  113.7810 C.3      59        0    0.0000
    357 H         107.9282  120.9952  112.1741 H        59        0    0.0000
    358 H         109.1913  119.8382  111.7685 H        59        0    0.0000
    359 H         108.6887  119.8826  114.2444 H        59        0    0.0000
    360 H         110.3694  120.2726  113.8959 H        59        0    0.0000
    361 C         109.1885  121.9848  114.5622 C.3      60        0    0.0000
    362 C         109.6486  121.8677  116.0195 C.3      60        0    0.0000
    363 H         109.7691  122.7591  114.0455 H        60        0    0.0000
    364 H         108.1384  122.2999  114.5234 H        60        0    0.0000
    365 H         110.7432  121.9170  116.0735 H        60        0    0.0000
    366 H         109.2659  122.7137  116.6038 H        60        0    0.0000
    367 C         109.1692  120.5335  116.6885 C.3      61        0    0.0000
    368 C         109.5760  120.4445  118.1635 C.3      61        0    0.0000
    369 H         108.0785  120.4627  116.5942 H        61        0    0.0000
    370 H         109.5892  119.6874  116.1306 H        61        0    0.0000
    371 H         108.6823  120.4087  118.7987 H        61        0    0.0000
    372 H         110.1294  119.5148  118.3456 H        61        0    0.0000
    373 C         110.4644  121.6568  118.6089 C.3      62        0    0.0000
    374 C         110.6779  121.6940  120.1262 C.3      62        0    0.0000
    375 H         111.4314  121.5945  118.0945 H        62        0    0.0000
    376 H         109.9883  122.5864  118.2732 H        62        0    0.0000
    377 H         111.7289  121.9119  120.3530 H        62        0    0.0000
    378 H         110.0854  122.5038  120.5697 H        62        0    0.0000
    379 C         110.2820  120.3426  120.8151 C.3      63        0    0.0000
    380 C         110.3938  120.4145  122.3420 C.3      63        0    0.0000
    381 H         109.2559  120.0850  120.5248 H        63        0    0.0000
    382 H         110.9286  119.5455  120.4277 H        63        0    0.0000
    383 H         110.0171  119.4870  122.7908 H        63        0    0.0000
    384 H         111.4463  120.5031  122.6384 H        63        0    0.0000
    385 C         109.5969  121.6250  122.9397 C.3      64        0    0.0000
    386 C         108.5824  121.1853  124.0011 C.3      64        0    0.0000
    387 H         110.3093  122.3380  123.3729 H        64        0    0.0000
    388 H         109.0842  122.1485  122.1233 H        64        0    0.0000
    389 H         107.8700  120.4723  123.5679 H        64        0    0.0000
    390 H         109.0951  120.6618  124.8175 H        64        0    0.0000
    391 H         108.0284  122.0270  124.4166 H        64        0    0.0000
    392 H          99.2798  174.4287  121.7450 H         0        0    0.0000
@<TRIPOS>BOND
     1     1     2      1
     2     1     3      1
     3     1     4      1
     4     1   392      H
     5     2     5      1
     6     2     6      1
     7     2     7      1
     8     7     8      1
     9     7     9      1
    10     7    10      1
    11     8    11      1
    12     8    12      1
    13     8    13      1
    14    13    14      1
    15    13    15      1
    16    13    16      1
    17    14    17      1
    18    14    18      1
    19    14    19      1
    20    19    20      1
    21    19    21      1
    22    19    22      1
    23    20    23      1
    24    20    24      1
    25    20    25      1
    26    25    26      1
    27    25    27      1
    28    25    28      1
    29    26    29      1
    30    26    30      1
    31    26    31      1
    32    31    32      1
    33    31    33      1
    34    31    34      1
    35    32    35      1
    36    32    36      1
    37    32    37      1
    38    37    38      1
    39    37    39      1
    40    37    40      1
    41    38    41      1
    42    38    42      1
    43    38    43      1
    44    43    44      1
    45    43    45      1
    46    43    46      1
    47    44    47      1
    48    44    48      1
    49    44    49      1
    50    49    50      1
    51    49    51      1
    52    49    52      1
    53    50    53      1
    54    50    54      1
    55    50    55      1
    56    55    56      1
    57    55    57      1
    58    55    58      1
    59    56    59      1
    60    56    60      1
    61    56    61      1
    62    61    62      1
    63    61    63      1
    64    61    64      1
    65    62    65      1
    66    62    66      1
    67    62    67      1
    68    67    68      1
    69    67    69      1
    70    67    70      1
    71    68    71      1
    72    68    72      1
    73    68    73      1
    74    73    74      1
    75    73    75      1
    76    73    76      1
    77    74    77      1
    78    74    78      1
    79    74    79      1
    80    79    80      1
    81    79    81      1
    82    79    82      1
    83    80    83      1
    84    80    84      1
    85    80    85      1
    86    85    86      1
    87    85    87      1
    88    85    88      1
    89    86    89      1
    90    86    90      1
    91    86    91      1
    92    91    92      1
    93    91    93      1
    94    91    94      1
    95    92    95      1
    96    92    96      1
    97    92    97      1
    98    97    98      1
    99    97    99      1
   100    97   100      1
   101    98   101      1
   102    98   102      1
   103    98   103      1
   104   103   104      1
   105   103   105      1
   106   103   106      1
   107   104   107      1
   108   104   108      1
   109   104   109      1
   110   109   110      1
   111   109   111      1
   112   109   112      1
   113   110   113      1
   114   110   114      1
   115   110   115      1
   116   115   116      1
   117   115   117      1
   118   115   118      1
   119   116   119      1
   120   116   120      1
   121   116   121      1
   122   121   122      1
   123   121   123      1
   124   121   124      1
   125   122   125      1
   126   122   126      1
   127   122   127      1
   128   127   128      1
   129   127   129      1
   130   127   130      1
   131   128   131      1
   132   128   132      1
   133   128   133      1
   134   133   134      1
   135   133   135      1
   136   133   136      1
   137   134   137      1
   138   134   138      1
   139   134   139      1
   140   139   140      1
   141   139   141      1
   142   139   142      1
   143   140   143      1
   144   140   144      1
   145   140   145      1
   146   145   146      1
   147   145   147      1
   148   145   148      1
   149   146   149      1
   150   146   150      1
   151   146   151      1
   152   151   152      1
   153   151   153      1
   154   151   154      1
   155   152   155      1
   156   152   156      1
   157   152   157      1
   158   157   158      1
   159   157   159      1
   160   157   160      1
   161   158   161      1
   162   158   162      1
   163   158   163      1
   164   163   164      1
   165   163   165      1
   166   163   166      1
   167   164   167      1
   168   164   168      1
   169   164   169      1
   170   169   170      1
   171   169   171      1
   172   169   172      1
   173   170   173      1
   174   170   174      1
   175   170   175      1
   176   175   176      1
   177   175   177      1
   178   175   178      1
   179   176   179      1
   180   176   180      1
   181   176   181      1
   182   181   182      1
   183   181   183      1
   184   181   184      1
   185   182   185      1
   186   182   186      1
   187   182   187      1
   188   187   188      1
   189   187   189      1
   190   187   190      1
   191   188   191      1
   192   188   192      1
   193   188   193      1
   194   193   194      1
   195   193   195      1
   196   193   196      1
   197   194   197      1
   198   194   198      1
   199   194   199      1
   200   199   200      1
   201   199   201      1
   202   199   202      1
   203   200   203      1
   204   200   204      1
   205   200   205      1
   206   205   206      1
   207   205   207      1
   208   205   208      1
   209   206   209      1
   210   206   210      1
   211   206   211      1
   212   211   212      1
   213   211   213      1
   214   211   214      1
   215   212   215      1
   216   212   216      1
   217   212   217      1
   218   217   218      1
   219   217   219      1
   220   217   220      1
   221   218   221      1
   222   218   222      1
   223   218   223      1
   224   223   224      1
   225   223   225      1
   226   223   226      1
   227   224   227      1
   228   224   228      1
   229   224   229      1
   230   229   230      1
   231   229   231      1
   232   229   232      1
   233   230   233      1
   234   230   234      1
   235   230   235      1
   236   235   236      1
   237   235   237      1
   238   235   238      1
   239   236   239      1
   240   236   240      1
   241   236   241      1
   242   241   242      1
   243   241   243      1
   244   241   244      1
   245   242   245      1
   246   242   246      1
   247   242   247      1
   248   247   248      1
   249   247   249      1
   250   247   250      1
   251   248   251      1
   252   248   252      1
   253   248   253      1
   254   253   254      1
   255   253   255      1
   256   253   256      1
   257   254   257      1
   258   254   258      1
   259   254   259      1
   260   259   260      1
   261   259   261      1
   262   259   262      1
   263   260   263      1
   264   260   264      1
   265   260   265      1
   266   265   266      1
   267   265   267      1
   268   265   268      1
   269   266   269      1
   270   266   270      1
   271   266   271      1
   272   271   272      1
   273   271   273      1
   274   271   274      1
   275   272   275      1
   276   272   276      1
   277   272   277      1
   278   277   278      1
   279   277   279      1
   280   277   280      1
   281   278   281      1
   282   278   282      1
   283   278   283      1
   284   283   284      1
   285   283   285      1
   286   283   286      1
   287   284   287      1
   288   284   288      1
   289   284   289      1
   290   289   290      1
   291   289   291      1
   292   289   292      1
   293   290   293      1
   294   290   294      1
   295   290   295      1
   296   295   296      1
   297   295   297      1
   298   295   298      1
   299   296   299      1
   300   296   300      1
   301   296   301      1
   302   301   302      1
   303   301   303      1
   304   301   304      1
   305   302   305      1
   306   302   306      1
   307   302   307      1
   308   307   308      1
   309   307   309      1
   310   307   310      1
   311   308   311      1
   312   308   312      1
   313   308   313      1
   314   313   314      1
   315   313   315      1
   316   313   316      1
   317   314   317      1
   318   314   318      1
   319   314   319      1
   320   319   320      1
   321   319   321      1
   322   319   322      1
   323   320   323      1
   324   320   324      1
   325   320   325      1
   326   325   326      1
   327   325   327      1
   328   325   328      1
   329   326   329      1
   330   326   330      1
   331   326   331      1
   332   331   332      1
   333   331   333      1
   334   331   334      1
   335   332   335      1
   336   332   336      1
   337   332   337      1
   338   337   338      1
   339   337   339      1
   340   337   340      1
   341   338   341      1
   342   338   342      1
   343   338   343      1
   344   343   344      1
   345   343   345      1
   346   343   346      1
   347   344   347      1
   348   344   348      1
   349   344   349      1
   350   349   350      1
   351   349   351      1
   352   349   352      1
   353   350   353      1
   354   350   354      1
   355   350   355      1
   356   355   356      1
   357   355   357      1
   358   355   358      1
   359   356   359      1
   360   356   360      1
   361   356   361      1
   362   361   362      1
   363   361   363      1
   364   361   364      1
   365   362   365      1
   366   362   366      1
   367   362   367      1
   368   367   368      1
   369   367   369      1
   370   367   370      1
   371   368   371      1
   372   368   372      1
   373   368   373      1
   374   373   374      1
   375   373   375      1
   376   373   376      1
   377   374   377      1
   378   374   378      1
   379   374   379      1
   380   379   380      1
   381   379   381      1
   382   379   382      1
   383   380   383      1
   384   380   384      1
   385   380   385      1
   386   385   386      1
   387   385   387      1
   388   385   388      1
   389   386   389      1
   390   386   390      1
   391   386   391      H
