###
### Created by PolyChef-cpp17 on Thu Feb 27 19:40:30 2025
###

@<TRIPOS>MOLECULE
NO_INFO
470 469 1 0 0
SMALL
USER_CHARGES


@<TRIPOS>ATOM
      1 C          -0.7202   70.5087  -39.3449 C.3       0        0    0.0000
      2 C          -2.1294   70.3482  -38.7641 C.3       0        0    0.0000
      3 H          -0.0729   69.6966  -38.9913 H         0        0    0.0000
      4 H          -0.2720   71.4455  -38.9913 H         0        0    0.0000
      5 H          -2.6278   71.3241  -38.7111 H         0        0    0.0000
      6 H          -2.7389   69.7186  -39.4242 H         0        0    0.0000
      7 C          -2.1127   69.7109  -37.3319 C.3       1        0    0.0000
      8 C          -0.8348   70.0541  -36.5584 C.3       1        0    0.0000
      9 H          -2.9929   70.0613  -36.7787 H         1        0    0.0000
     10 H          -2.2136   68.6227  -37.4279 H         1        0    0.0000
     11 H           0.0455   69.8753  -37.1881 H         1        0    0.0000
     12 H          -0.8262   71.1203  -36.3003 H         1        0    0.0000
     13 C          -0.6936   69.2144  -35.2422 C.3       2        0    0.0000
     14 C           0.2084   69.8999  -34.2099 C.3       2        0    0.0000
     15 H          -1.6922   69.0498  -34.8188 H         2        0    0.0000
     16 H          -0.2917   68.2254  -35.4951 H         2        0    0.0000
     17 H           1.2621   69.7733  -34.4880 H         2        0    0.0000
     18 H           0.0133   70.9794  -34.1977 H         2        0    0.0000
     19 C          -0.0044   69.3316  -32.7645 C.3       3        0    0.0000
     20 C           0.6259   70.2250  -31.6904 C.3       3        0    0.0000
     21 H          -1.0809   69.2255  -32.5812 H         3        0    0.0000
     22 H           0.4246   68.3232  -32.7142 H         3        0    0.0000
     23 H           1.7152   70.2549  -31.8178 H         3        0    0.0000
     24 H           0.2674   71.2560  -31.8008 H         3        0    0.0000
     25 C           0.3003   69.7295  -30.2393 C.3       4        0    0.0000
     26 C           0.9146   70.6338  -29.1651 C.3       4        0    0.0000
     27 H          -0.7891   69.6861  -30.1166 H         4        0    0.0000
     28 H           0.6713   68.7035  -30.1244 H         4        0    0.0000
     29 H           2.0043   70.6737  -29.2852 H         4        0    0.0000
     30 H           0.5469   71.6607  -29.2827 H         4        0    0.0000
     31 C           0.5838   70.1417  -27.7140 C.3       5        0    0.0000
     32 C           1.1921   71.0501  -26.6398 C.3       5        0    0.0000
     33 H          -0.5059   70.0967  -27.5956 H         5        0    0.0000
     34 H           0.9562   69.1167  -27.5947 H         5        0    0.0000
     35 H           2.2819   71.0946  -26.7578 H         5        0    0.0000
     36 H           0.8202   72.0753  -26.7594 H         5        0    0.0000
     37 C           0.8606   70.5585  -25.1886 C.3       6        0    0.0000
     38 C           1.4661   71.4688  -24.1145 C.3       6        0    0.0000
     39 H          -0.2291   70.5117  -25.0714 H         6        0    0.0000
     40 H           1.2347   69.5342  -25.0682 H         6        0    0.0000
     41 H           2.5560   71.5153  -24.2315 H         6        0    0.0000
     42 H           1.0924   72.4931  -24.2351 H         6        0    0.0000
     43 C           1.1343   70.9774  -22.6633 C.3       7        0    0.0000
     44 C           2.2591   71.2938  -21.6715 C.3       7        0    0.0000
     45 H           0.1998   71.4493  -22.3353 H         7        0    0.0000
     46 H           0.9490   69.8964  -22.6897 H         7        0    0.0000
     47 H           3.2181   70.9316  -22.0623 H         7        0    0.0000
     48 H           2.3585   72.3794  -21.5492 H         7        0    0.0000
     49 C           2.0103   70.6476  -20.2651 C.3       8        0    0.0000
     50 C           2.0832   71.6769  -19.1318 C.3       8        0    0.0000
     51 H           1.0271   70.1609  -20.2685 H         8        0    0.0000
     52 H           2.7528   69.8564  -20.1031 H         8        0    0.0000
     53 H           3.1288   71.8532  -18.8505 H         8        0    0.0000
     54 H           1.6818   72.6396  -19.4717 H         8        0    0.0000
     55 C           1.2884   71.2184  -17.8608 C.3       9        0    0.0000
     56 C           2.1556   71.2327  -16.5970 C.3       9        0    0.0000
     57 H           0.4211   71.8772  -17.7293 H         9        0    0.0000
     58 H           0.8942   70.2096  -18.0350 H         9        0    0.0000
     59 H           3.1469   70.8172  -16.8163 H         9        0    0.0000
     60 H           2.3140   72.2650  -16.2612 H         9        0    0.0000
     61 C           1.5121   70.4134  -15.4257 C.3      10        0    0.0000
     62 C           1.8659   70.9902  -14.0505 C.3      10        0    0.0000
     63 H           0.4233   70.4007  -15.5595 H        10        0    0.0000
     64 H           1.8502   69.3720  -15.4951 H        10        0    0.0000
     65 H           2.9387   70.8682  -13.8561 H        10        0    0.0000
     66 H           1.6628   72.0681  -14.0311 H        10        0    0.0000
     67 C           1.0614   70.3036  -12.8934 C.3      11        0    0.0000
     68 C           1.5472   70.7434  -11.5078 C.3      11        0    0.0000
     69 H          -0.0027   70.5426  -13.0123 H        11        0    0.0000
     70 H           1.1533   69.2153  -12.9963 H        11        0    0.0000
     71 H           2.6202   70.5404  -11.4035 H        11        0    0.0000
     72 H           1.4186   71.8265  -11.3904 H        11        0    0.0000
     73 C           0.7804   70.0150  -10.3507 C.3      12        0    0.0000
     74 C           1.2571   70.4643   -8.9651 C.3      12        0    0.0000
     75 H          -0.2936   70.2102  -10.4605 H        12        0    0.0000
     76 H           0.9169   68.9323  -10.4627 H        12        0    0.0000
     77 H           2.3305   70.2666   -8.8543 H        12        0    0.0000
     78 H           1.1232   71.5475   -8.8541 H        12        0    0.0000
     79 C           0.4876   69.7388   -7.8079 C.3      13        0    0.0000
     80 C           0.9641   70.1884   -6.4223 C.3      13        0    0.0000
     81 H          -0.5858   69.9362   -7.9190 H        13        0    0.0000
     82 H           0.6219   68.6557   -7.9187 H        13        0    0.0000
     83 H           2.0375   69.9908   -6.3112 H        13        0    0.0000
     84 H           0.8301   71.2716   -6.3116 H        13        0    0.0000
     85 C           0.1943   69.4632   -5.2652 C.3      14        0    0.0000
     86 C           0.6711   69.9124   -3.8796 C.3      14        0    0.0000
     87 H          -0.8790   69.6611   -5.3761 H        14        0    0.0000
     88 H           0.3280   68.3800   -5.3761 H        14        0    0.0000
     89 H           1.7462   69.7224   -3.7718 H        14        0    0.0000
     90 H           0.5295   70.9943   -3.7655 H        14        0    0.0000
     91 C          -0.0902   69.1783   -2.7224 C.3      15        0    0.0000
     92 C           0.3824   69.6319   -1.3368 C.3      15        0    0.0000
     93 H          -1.1657   69.3648   -2.8327 H        15        0    0.0000
     94 H           0.0551   68.0967   -2.8340 H        15        0    0.0000
     95 H           1.4627   69.4692   -1.2359 H        15        0    0.0000
     96 H           0.2134   70.7091   -1.2157 H        15        0    0.0000
     97 C          -0.3532   68.8718   -0.1799 C.3      16        0    0.0000
     98 C          -0.0867   69.5027    1.1912 C.3      16        0    0.0000
     99 H          -1.4302   68.8669   -0.3888 H        16        0    0.0000
    100 H          -0.0272   67.8243   -0.1817 H        16        0    0.0000
    101 H          -0.6377   68.9594    1.9688 H        16        0    0.0000
    102 H           0.9778   69.4197    1.4430 H        16        0    0.0000
    103 C          -0.5012   71.0138    1.2405 C.3      17        0    0.0000
    104 C          -0.1566   71.6671    2.5835 C.3      17        0    0.0000
    105 H           0.0022   71.5454    0.4235 H        17        0    0.0000
    106 H          -1.5788   71.0912    1.0500 H        17        0    0.0000
    107 H          -0.3596   72.7443    2.5408 H        17        0    0.0000
    108 H          -0.7952   71.2573    3.3759 H        17        0    0.0000
    109 C           1.3441   71.4511    2.9815 C.3      18        0    0.0000
    110 C           1.6605   72.0031    4.3759 C.3      18        0    0.0000
    111 H           1.5697   70.3782    2.9416 H        18        0    0.0000
    112 H           1.9820   71.9352    2.2317 H        18        0    0.0000
    113 H           1.9004   71.1802    5.0607 H        18        0    0.0000
    114 H           2.5481   72.6464    4.3333 H        18        0    0.0000
    115 C           0.4678   72.8264    4.9735 C.3      19        0    0.0000
    116 C           0.8022   73.4200    6.3464 C.3      19        0    0.0000
    117 H           0.2041   73.6272    4.2716 H        19        0    0.0000
    118 H          -0.4099   72.1728    5.0500 H        19        0    0.0000
    119 H           0.4980   72.7266    7.1403 H        19        0    0.0000
    120 H           1.8866   73.5546    6.4441 H        19        0    0.0000
    121 C           0.0983   74.8005    6.5842 C.3      20        0    0.0000
    122 C           0.4348   75.3954    7.9560 C.3      20        0    0.0000
    123 H           0.4010   75.4933    5.7892 H        20        0    0.0000
    124 H          -0.9862   74.6655    6.4885 H        20        0    0.0000
    125 H           0.0562   76.4228    8.0236 H        20        0    0.0000
    126 H          -0.0649   74.8228    8.7472 H        20        0    0.0000
    127 C           1.9770   75.4057    8.2370 C.3      21        0    0.0000
    128 C           2.3025   75.8218    9.6757 C.3      21        0    0.0000
    129 H           2.3801   74.4058    8.0342 H        21        0    0.0000
    130 H           2.4609   76.0900    7.5289 H        21        0    0.0000
    131 H           2.6628   74.9561   10.2453 H        21        0    0.0000
    132 H           3.1134   76.5608    9.6793 H        21        0    0.0000
    133 C           1.0606   76.4307   10.4135 C.3      22        0    0.0000
    134 C           1.4201   76.9822   11.7976 C.3      22        0    0.0000
    135 H           0.6345   77.2268    9.7904 H        22        0    0.0000
    136 H           0.2894   75.6560   10.5059 H        22        0    0.0000
    137 H           1.1889   76.2386   12.5704 H        22        0    0.0000
    138 H           2.4986   77.1741   11.8576 H        22        0    0.0000
    139 C           0.6518   78.3084   12.1266 C.3      23        0    0.0000
    140 C           1.0487   78.8869   13.4892 C.3      23        0    0.0000
    141 H           0.8536   79.0399   11.3342 H        23        0    0.0000
    142 H          -0.4265   78.1077   12.1027 H        23        0    0.0000
    143 H           2.0442   79.3438   13.4284 H        23        0    0.0000
    144 H           0.3528   79.6850   13.7762 H        23        0    0.0000
    145 C           1.0608   77.7975   14.6164 C.3      24        0    0.0000
    146 C           1.6068   78.3393   15.9420 C.3      24        0    0.0000
    147 H           0.0396   77.4215   14.7557 H        24        0    0.0000
    148 H           1.6664   76.9470   14.2796 H        24        0    0.0000
    149 H           0.9392   78.0593   16.7663 H        24        0    0.0000
    150 H           2.5825   77.8876   16.1597 H        24        0    0.0000
    151 C           1.7641   79.8989   15.9267 C.3      25        0    0.0000
    152 C           2.1457   80.4578   17.3019 C.3      25        0    0.0000
    153 H           2.5263   80.1702   15.1857 H        25        0    0.0000
    154 H           0.8215   80.3461   15.5873 H        25        0    0.0000
    155 H           1.7887   79.7867   18.0929 H        25        0    0.0000
    156 H           3.2374   80.5061   17.3985 H        25        0    0.0000
    157 C           1.5529   81.8882   17.5472 C.3      26        0    0.0000
    158 C           1.9233   82.4415   18.9276 C.3      26        0    0.0000
    159 H           1.9177   82.5616   16.7617 H        26        0    0.0000
    160 H           0.4620   81.8419   17.4408 H        26        0    0.0000
    161 H           2.9884   82.7029   18.9547 H        26        0    0.0000
    162 H           1.3668   83.3663   19.1238 H        26        0    0.0000
    163 C           1.6247   81.4185   20.0774 C.3      27        0    0.0000
    164 C           2.0865   81.9316   21.4458 C.3      27        0    0.0000
    165 H           0.5472   81.2129   20.0968 H        27        0    0.0000
    166 H           2.1224   80.4691   19.8440 H        27        0    0.0000
    167 H           1.6375   81.3286   22.2447 H        27        0    0.0000
    168 H           3.1739   81.8217   21.5413 H        27        0    0.0000
    169 C           1.7086   83.4357   21.6748 C.3      28        0    0.0000
    170 C           2.5438   84.0818   22.7856 C.3      28        0    0.0000
    171 H           1.8470   83.9823   20.7337 H        28        0    0.0000
    172 H           0.6415   83.4985   21.9216 H        28        0    0.0000
    173 H           2.9699   83.3070   23.4349 H        28        0    0.0000
    174 H           3.3897   84.6284   22.3506 H        28        0    0.0000
    175 C           1.7015   85.0700   23.6638 C.3      29        0    0.0000
    176 C           2.5105   85.6417   24.8334 C.3      29        0    0.0000
    177 H           1.3345   85.8843   23.0268 H        29        0    0.0000
    178 H           0.8169   84.5419   24.0409 H        29        0    0.0000
    179 H           3.0620   84.8384   25.3374 H        29        0    0.0000
    180 H           3.2590   86.3522   24.4613 H        29        0    0.0000
    181 C           1.6027   86.3683   25.8848 C.3      30        0    0.0000
    182 C           2.4150   86.9673   27.0382 C.3      30        0    0.0000
    183 H           1.0339   87.1565   25.3762 H        30        0    0.0000
    184 H           0.8691   85.6514   26.2739 H        30        0    0.0000
    185 H           1.7680   87.5857   27.6725 H        30        0    0.0000
    186 H           2.8093   86.1666   27.6762 H        30        0    0.0000
    187 C           3.6113   87.8437   26.5300 C.3      31        0    0.0000
    188 C           4.3772   88.5048   27.6813 C.3      31        0    0.0000
    189 H           4.2881   87.2115   25.9420 H        31        0    0.0000
    190 H           3.2233   88.6099   25.8474 H        31        0    0.0000
    191 H           5.4470   88.2754   27.6021 H        31        0    0.0000
    192 H           4.2834   89.5960   27.6178 H        31        0    0.0000
    193 C           3.8621   88.0343   29.0851 C.3      32        0    0.0000
    194 C           4.2971   88.9797   30.2102 C.3      32        0    0.0000
    195 H           2.7677   87.9641   29.0548 H        32        0    0.0000
    196 H           4.2375   87.0217   29.2783 H        32        0    0.0000
    197 H           5.1996   88.5924   30.6991 H        32        0    0.0000
    198 H           4.5596   89.9612   29.7964 H        32        0    0.0000
    199 C           3.1786   89.1701   31.2920 C.3      33        0    0.0000
    200 C           3.6131   90.1167   32.4164 C.3      33        0    0.0000
    201 H           2.2758   89.5564   30.8029 H        33        0    0.0000
    202 H           2.9169   88.1887   31.7066 H        33        0    0.0000
    203 H           3.7991   91.1197   32.0128 H        33        0    0.0000
    204 H           2.8080   90.2185   33.1546 H        33        0    0.0000
    205 C           4.9076   89.6176   33.1461 C.3      34        0    0.0000
    206 C           5.3053   90.5295   34.3121 C.3      34        0    0.0000
    207 H           4.7378   88.5961   33.5085 H        34        0    0.0000
    208 H           5.7252   89.5613   32.4168 H        34        0    0.0000
    209 H           5.2513   89.9761   35.2578 H        34        0    0.0000
    210 H           6.3465   90.8552   34.1967 H        34        0    0.0000
    211 C           4.3880   91.7965   34.4149 C.3      35        0    0.0000
    212 C           4.6317   92.5869   35.7053 C.3      35        0    0.0000
    213 H           4.5692   92.4361   33.5422 H        35        0    0.0000
    214 H           3.3392   91.4792   34.3606 H        35        0    0.0000
    215 H           5.1146   91.9461   36.4534 H        35        0    0.0000
    216 H           5.3197   93.4193   35.5123 H        35        0    0.0000
    217 C           3.3039   93.1589   36.3114 C.3      36        0    0.0000
    218 C           3.5439   93.9232   37.6180 C.3      36        0    0.0000
    219 H           2.8324   93.8174   35.5715 H        36        0    0.0000
    220 H           2.6075   92.3288   36.4837 H        36        0    0.0000
    221 H           2.6359   94.4662   37.9084 H        36        0    0.0000
    222 H           3.7636   93.2197   38.4305 H        36        0    0.0000
    223 C           4.7274   94.9445   37.5001 C.3      37        0    0.0000
    224 C           5.2065   95.4390   38.8694 C.3      37        0    0.0000
    225 H           5.5552   94.4659   36.9623 H        37        0    0.0000
    226 H           4.4020   95.7935   36.8862 H        37        0    0.0000
    227 H           6.1190   94.9060   39.1636 H        37        0    0.0000
    228 H           5.4670   96.5033   38.8149 H        37        0    0.0000
    229 C           4.1233   95.2404   39.9851 C.3      38        0    0.0000
    230 C           4.5523   95.8469   41.3257 C.3      38        0    0.0000
    231 H           3.1830   95.6956   39.6500 H        38        0    0.0000
    232 H           3.9294   94.1671   40.1026 H        38        0    0.0000
    233 H           3.7356   95.7658   42.0537 H        38        0    0.0000
    234 H           5.3994   95.2853   41.7386 H        38        0    0.0000
    235 C           4.9622   97.3540   41.1919 C.3      39        0    0.0000
    236 C           5.3923   97.9602   42.5323 C.3      39        0    0.0000
    237 H           5.7784   97.4352   40.4633 H        39        0    0.0000
    238 H           4.1148   97.9157   40.7796 H        39        0    0.0000
    239 H           6.3717   97.5638   42.8275 H        39        0    0.0000
    240 H           5.5088   99.0466   42.4338 H        39        0    0.0000
    241 C           4.3619   97.6642   43.6761 C.3      40        0    0.0000
    242 C           4.8278   98.2056   45.0321 C.3      40        0    0.0000
    243 H           3.3959   98.1083   43.4054 H        40        0    0.0000
    244 H           4.2040   96.5803   43.7380 H        40        0    0.0000
    245 H           3.9967   98.1924   45.7481 H        40        0    0.0000
    246 H           5.6109   97.5588   45.4465 H        40        0    0.0000
    247 C           5.3826   99.6682   44.9289 C.3      41        0    0.0000
    248 C           5.8603  100.2050   46.2827 C.3      41        0    0.0000
    249 H           6.2076   99.6832   44.2059 H        41        0    0.0000
    250 H           4.5964  100.3168   44.5232 H        41        0    0.0000
    251 H           6.7994   99.7166   46.5709 H        41        0    0.0000
    252 H           6.0737  101.2785   46.2075 H        41        0    0.0000
    253 C           4.8036   99.9782   47.4181 C.3      42        0    0.0000
    254 C           5.2565  100.5662   48.7591 C.3      42        0    0.0000
    255 H           3.8522  100.4303   47.1113 H        42        0    0.0000
    256 H           4.6217   98.9013   47.5219 H        42        0    0.0000
    257 H           4.4433  100.5005   49.4925 H        42        0    0.0000
    258 H           6.0928   99.9821   49.1627 H        42        0    0.0000
    259 C           5.7015  102.0639   48.6310 C.3      43        0    0.0000
    260 C           6.2260  102.6293   49.9555 C.3      43        0    0.0000
    261 H           6.4760  102.1378   47.8575 H        43        0    0.0000
    262 H           4.8483  102.6576   48.2802 H        43        0    0.0000
    263 H           7.2372  102.2515   50.1516 H        43        0    0.0000
    264 H           6.3044  103.7218   49.8934 H        43        0    0.0000
    265 C           5.3037  102.2570   51.1672 C.3      44        0    0.0000
    266 C           5.7954  102.8721   52.4820 C.3      44        0    0.0000
    267 H           4.2828  102.5961   50.9518 H        44        0    0.0000
    268 H           5.2605  101.1644   51.2560 H        44        0    0.0000
    269 H           5.0615  102.6949   53.2779 H        44        0    0.0000
    270 H           6.7271  102.3872   52.7990 H        44        0    0.0000
    271 C           6.0451  104.4149   52.3593 C.3      45        0    0.0000
    272 C           6.5938  105.0195   53.6564 C.3      45        0    0.0000
    273 H           6.7456  104.5952   51.5345 H        45        0    0.0000
    274 H           5.1027  104.9049   52.0851 H        45        0    0.0000
    275 H           7.6508  104.7523   53.7783 H        45        0    0.0000
    276 H           6.5490  106.1146   53.6094 H        45        0    0.0000
    277 C           5.8013  104.5351   54.9194 C.3      46        0    0.0000
    278 C           6.3116  105.1856   56.2099 C.3      46        0    0.0000
    279 H           4.7375  104.7632   54.7782 H        46        0    0.0000
    280 H           5.8827  103.4434   54.9907 H        46        0    0.0000
    281 H           5.6567  104.9204   57.0492 H        46        0    0.0000
    282 H           7.3095  104.8018   56.4556 H        46        0    0.0000
    283 C           6.3840  106.7476   56.0996 C.3      47        0    0.0000
    284 C           6.9555  107.3936   57.3666 C.3      47        0    0.0000
    285 H           7.0003  107.0126   55.2315 H        47        0    0.0000
    286 H           5.3771  107.1352   55.9012 H        47        0    0.0000
    287 H           8.0419  107.2464   57.4065 H        47        0    0.0000
    288 H           6.7849  108.4771   57.3462 H        47        0    0.0000
    289 C           6.3176  106.8061   58.6725 C.3      48        0    0.0000
    290 C           6.8450  107.4936   59.9367 C.3      48        0    0.0000
    291 H           5.2275  106.9135   58.6128 H        48        0    0.0000
    292 H           6.5263  105.7299   58.7147 H        48        0    0.0000
    293 H           6.2879  107.1447   60.8149 H        48        0    0.0000
    294 H           7.8953  107.2229   60.1018 H        48        0    0.0000
    295 C           6.7327  109.0551   59.8546 C.3      49        0    0.0000
    296 C           7.3218  109.7456   61.0896 C.3      49        0    0.0000
    297 H           7.2480  109.3996   58.9494 H        49        0    0.0000
    298 H           5.6764  109.3280   59.7389 H        49        0    0.0000
    299 H           8.4177  109.7248   61.0453 H        49        0    0.0000
    300 H           7.0272  110.8022   61.1062 H        49        0    0.0000
    301 C           6.8572  109.0704   62.4259 C.3      50        0    0.0000
    302 C           7.3901  109.8025   63.6625 C.3      50        0    0.0000
    303 H           5.7606  109.0456   62.4470 H        50        0    0.0000
    304 H           7.1960  108.0270   62.4314 H        50        0    0.0000
    305 H           6.9495  109.3751   64.5717 H        50        0    0.0000
    306 H           8.4754  109.6638   63.7431 H        50        0    0.0000
    307 C           7.0786  111.3384   63.6238 C.3      51        0    0.0000
    308 C           7.6824  112.0838   64.8191 C.3      51        0    0.0000
    309 H           7.4667  111.7544   62.6858 H        51        0    0.0000
    310 H           5.9906  111.4781   63.6040 H        51        0    0.0000
    311 H           8.7622  112.2140   64.6748 H        51        0    0.0000
    312 H           7.2509  113.0898   64.8921 H        51        0    0.0000
    313 C           7.4407  111.3309   66.1726 C.3      52        0    0.0000
    314 C           7.9781  112.1128   67.3763 C.3      52        0    0.0000
    315 H           6.3647  111.1519   66.2904 H        52        0    0.0000
    316 H           7.9200  110.3455   66.1196 H        52        0    0.0000
    317 H           7.6894  111.6126   68.3091 H        52        0    0.0000
    318 H           9.0748  112.1299   67.3544 H        52        0    0.0000
    319 C           7.4503  113.5885   67.4099 C.3      53        0    0.0000
    320 C           8.0551  114.3955   68.5640 C.3      53        0    0.0000
    321 H           7.6836  114.0693   66.4518 H        53        0    0.0000
    322 H           6.3567  113.5710   67.4956 H        53        0    0.0000
    323 H           9.0848  114.6857   68.3210 H        53        0    0.0000
    324 H           7.4915  115.3256   68.7085 H        53        0    0.0000
    325 C           8.0606  113.5935   69.9109 C.3      54        0    0.0000
    326 C           8.5849  114.4304   71.0831 C.3      54        0    0.0000
    327 H           7.0406  113.2488   70.1214 H        54        0    0.0000
    328 H           8.6771  112.6949   69.7849 H        54        0    0.0000
    329 H           8.4718  113.8747   72.0222 H        54        0    0.0000
    330 H           9.6577  114.6225   70.9579 H        54        0    0.0000
    331 C           7.8379  115.8023   71.2146 C.3      55        0    0.0000
    332 C           8.4369  116.6868   72.3136 C.3      55        0    0.0000
    333 H           7.8797  116.3216   70.2492 H        55        0    0.0000
    334 H           6.7782  115.6094   71.4229 H        55        0    0.0000
    335 H           9.3556  117.1653   71.9522 H        55        0    0.0000
    336 H           7.7398  117.4949   72.5677 H        55        0    0.0000
    337 C           8.7672  115.8765   73.6143 C.3      56        0    0.0000
    338 C           9.2678  116.7776   74.7485 C.3      56        0    0.0000
    339 H           7.8669  115.3363   73.9325 H        56        0    0.0000
    340 H           9.5223  115.1173   73.3758 H        56        0    0.0000
    341 H           9.3932  116.1913   75.6672 H        56        0    0.0000
    342 H          10.2550  117.1849   74.4975 H        56        0    0.0000
    343 C           8.2890  117.9674   75.0381 C.3      57        0    0.0000
    344 C           8.8398  118.9277   76.0981 C.3      57        0    0.0000
    345 H           8.1023  118.5077   74.1018 H        57        0    0.0000
    346 H           7.3241  117.5601   75.3646 H        57        0    0.0000
    347 H           9.6981  119.4799   75.6957 H        57        0    0.0000
    348 H           8.0799  119.6742   76.3605 H        57        0    0.0000
    349 C           9.2858  118.1808   77.4021 C.3      58        0    0.0000
    350 C           9.6834  119.1509   78.5201 C.3      58        0    0.0000
    351 H           8.4648  117.5354   77.7384 H        58        0    0.0000
    352 H          10.1274  117.5198   77.1607 H        58        0    0.0000
    353 H           8.9371  119.1247   79.3238 H        58        0    0.0000
    354 H          10.6369  118.8412   78.9654 H        58        0    0.0000
    355 C           9.8209  120.6254   78.0061 C.3      59        0    0.0000
    356 C          10.0580  121.6191   79.1487 C.3      59        0    0.0000
    357 H          10.6487  120.6737   77.2878 H        59        0    0.0000
    358 H           8.9106  120.8946   77.4563 H        59        0    0.0000
    359 H          10.8892  122.2896   78.8977 H        59        0    0.0000
    360 H           9.1728  122.2524   79.2861 H        59        0    0.0000
    361 C          10.3802  120.9002   80.5040 C.3      60        0    0.0000
    362 C          10.2986  121.8538   81.7011 C.3      60        0    0.0000
    363 H           9.6788  120.0674   80.6380 H        60        0    0.0000
    364 H          11.3832  120.4603   80.4412 H        60        0    0.0000
    365 H          11.2311  122.4247   81.7914 H        60        0    0.0000
    366 H           9.4955  122.5848   81.5456 H        60        0    0.0000
    367 C          10.0380  121.0955   83.0481 C.3      61        0    0.0000
    368 C          10.1616  122.0168   84.2667 C.3      61        0    0.0000
    369 H           9.0365  120.6488   83.0143 H        61        0    0.0000
    370 H          10.7505  120.2654   83.1302 H        61        0    0.0000
    371 H          11.1356  122.5217   84.2592 H        61        0    0.0000
    372 H           9.3985  122.8037   84.2223 H        61        0    0.0000
    373 C          10.0065  121.2381   85.6183 C.3      62        0    0.0000
    374 C          10.1634  122.1536   86.8374 C.3      62        0    0.0000
    375 H           9.0225  120.7532   85.6362 H        62        0    0.0000
    376 H          10.7538  120.4356   85.6519 H        62        0    0.0000
    377 H          11.1430  122.6470   86.8138 H        62        0    0.0000
    378 H           9.4090  122.9497   86.8096 H        62        0    0.0000
    379 C          10.0238  121.3722   88.1892 C.3      63        0    0.0000
    380 C          10.1815  122.2876   89.4083 C.3      63        0    0.0000
    381 H           9.0439  120.8794   88.2132 H        63        0    0.0000
    382 H          10.7777  120.5757   88.2167 H        63        0    0.0000
    383 H          11.1593  122.7843   89.3816 H        63        0    0.0000
    384 H           9.4243  123.0810   89.3835 H        63        0    0.0000
    385 C          10.0492  121.5048   90.7601 C.3      64        0    0.0000
    386 C          10.2027  122.4209   91.9792 C.3      64        0    0.0000
    387 H           9.0727  121.0055   90.7854 H        64        0    0.0000
    388 H          10.8085  120.7134   90.7862 H        64        0    0.0000
    389 H          11.1800  122.9187   91.9549 H        64        0    0.0000
    390 H           9.4447  123.2135   91.9520 H        64        0    0.0000
    391 C          10.0676  121.6387   93.3309 C.3      65        0    0.0000
    392 C          10.2215  122.5547   94.5500 C.3      65        0    0.0000
    393 H           9.0902  121.1411   93.3553 H        65        0    0.0000
    394 H          10.8254  120.8459   93.3580 H        65        0    0.0000
    395 H          11.1994  123.0514   94.5264 H        65        0    0.0000
    396 H           9.4644  123.3482   94.5223 H        65        0    0.0000
    397 C          10.0845  121.7728   95.9018 C.3      66        0    0.0000
    398 C          10.2529  122.6862   97.1209 C.3      66        0    0.0000
    399 H           9.1023  121.2849   95.9302 H        66        0    0.0000
    400 H          10.8345  120.9725   95.9249 H        66        0    0.0000
    401 H          11.2348  123.1748   97.0921 H        66        0    0.0000
    402 H           9.5024  123.4860   97.0982 H        66        0    0.0000
    403 C          10.1172  121.9041   98.4727 C.3      67        0    0.0000
    404 C          10.2812  122.8184   99.6918 C.3      67        0    0.0000
    405 H           9.1366  121.4129   98.5000 H        67        0    0.0000
    406 H          10.8699  121.1064   98.4968 H        67        0    0.0000
    407 H          11.2627  123.3077   99.6657 H        67        0    0.0000
    408 H           9.5300  123.6175   99.6664 H        67        0    0.0000
    409 C          10.1420  122.0368  101.0435 C.3      68        0    0.0000
    410 C          10.3084  122.9507  102.2626 C.3      68        0    0.0000
    411 H           9.1598  121.5489  101.0704 H        68        0    0.0000
    412 H          10.8921  121.2366  101.0681 H        68        0    0.0000
    413 H          11.2899  123.4398  102.2350 H        68        0    0.0000
    414 H           9.5573  123.7500  102.2389 H        68        0    0.0000
    415 C          10.1714  122.1687  103.6144 C.3      69        0    0.0000
    416 C          10.3212  123.0855  104.8335 C.3      69        0    0.0000
    417 H           9.1947  121.6696  103.6368 H        69        0    0.0000
    418 H          10.9304  121.3772  103.6435 H        69        0    0.0000
    419 H          11.2986  123.5832  104.8120 H        69        0    0.0000
    420 H           9.5634  123.8781  104.8035 H        69        0    0.0000
    421 C          10.1817  122.3039  106.1852 C.3      70        0    0.0000
    422 C          10.3485  123.2177  107.4044 C.3      70        0    0.0000
    423 H           9.1992  121.8165  106.2121 H        70        0    0.0000
    424 H          10.9313  121.5033  106.2098 H        70        0    0.0000
    425 H          11.3304  123.7062  107.3768 H        70        0    0.0000
    426 H           9.5980  124.0175  107.3805 H        70        0    0.0000
    427 C          10.2109  122.4359  108.7561 C.3      71        0    0.0000
    428 C          10.3780  123.3496  109.9752 C.3      71        0    0.0000
    429 H           9.2289  121.9476  108.7838 H        71        0    0.0000
    430 H          10.9613  121.6359  108.7799 H        71        0    0.0000
    431 H          11.3606  123.8368  109.9483 H        71        0    0.0000
    432 H           9.6286  124.1503  109.9507 H        71        0    0.0000
    433 C          10.2385  122.5681  111.3270 C.3      72        0    0.0000
    434 C          10.4054  123.4818  112.5461 C.3      72        0    0.0000
    435 H           9.2559  122.0808  111.3539 H        72        0    0.0000
    436 H          10.9880  121.7674  111.3516 H        72        0    0.0000
    437 H          11.3873  123.9704  112.5184 H        72        0    0.0000
    438 H           9.6548  124.2816  112.5224 H        72        0    0.0000
    439 C          10.2680  122.6999  113.8979 C.3      73        0    0.0000
    440 C          10.4114  123.6177  115.1169 C.3      73        0    0.0000
    441 H           9.2931  122.1972  113.9181 H        73        0    0.0000
    442 H          11.0299  121.9112  113.9292 H        73        0    0.0000
    443 H          11.3876  124.1180  115.0985 H        73        0    0.0000
    444 H           9.6516  124.4084  115.0839 H        73        0    0.0000
    445 C          10.2693  122.8366  116.4687 C.3      74        0    0.0000
    446 C          10.4928  123.7390  117.6872 C.3      74        0    0.0000
    447 H           9.2704  122.3853  116.5130 H        74        0    0.0000
    448 H          10.9896  122.0091  116.4762 H        74        0    0.0000
    449 H          11.4876  124.1988  117.6374 H        74        0    0.0000
    450 H           9.7656  124.5604  117.6854 H        74        0    0.0000
    451 C          10.3658  122.9547  119.0386 C.3      75        0    0.0000
    452 C           9.4500  123.6672  120.0399 C.3      75        0    0.0000
    453 H           9.9828  121.9483  118.8287 H        75        0    0.0000
    454 H          11.3669  122.8273  119.4689 H        75        0    0.0000
    455 H          10.0270  124.3920  120.6275 H        75        0    0.0000
    456 H           8.6796  124.2369  119.5056 H        75        0    0.0000
    457 C           8.7487  122.6655  121.0207 C.3      76        0    0.0000
    458 C           9.4749  122.5659  122.3667 C.3      76        0    0.0000
    459 H           7.7121  122.9896  121.1756 H        76        0    0.0000
    460 H           8.7022  121.6783  120.5444 H        76        0    0.0000
    461 H           9.8253  123.5574  122.6793 H        76        0    0.0000
    462 H           8.7823  122.2174  123.1429 H        76        0    0.0000
    463 C          10.7014  121.5914  122.3093 C.3      77        0    0.0000
    464 C          10.8169  120.7281  123.5705 C.3      77        0    0.0000
    465 H          10.6037  120.9518  121.4234 H        77        0    0.0000
    466 H          11.6160  122.1816  122.1725 H        77        0    0.0000
    467 H          10.9146  121.3677  124.4565 H        77        0    0.0000
    468 H           9.9024  120.1379  123.7074 H        77        0    0.0000
    469 H          11.6698  120.0505  123.5306 H        77        0    0.0000
    470 H          -0.7202   70.5087  -40.4349 H         0        0    0.0000
@<TRIPOS>BOND
     1     1     2      1
     2     1     3      1
     3     1     4      1
     4     1   470      H
     5     2     5      1
     6     2     6      1
     7     2     7      1
     8     7     8      1
     9     7     9      1
    10     7    10      1
    11     8    11      1
    12     8    12      1
    13     8    13      1
    14    13    14      1
    15    13    15      1
    16    13    16      1
    17    14    17      1
    18    14    18      1
    19    14    19      1
    20    19    20      1
    21    19    21      1
    22    19    22      1
    23    20    23      1
    24    20    24      1
    25    20    25      1
    26    25    26      1
    27    25    27      1
    28    25    28      1
    29    26    29      1
    30    26    30      1
    31    26    31      1
    32    31    32      1
    33    31    33      1
    34    31    34      1
    35    32    35      1
    36    32    36      1
    37    32    37      1
    38    37    38      1
    39    37    39      1
    40    37    40      1
    41    38    41      1
    42    38    42      1
    43    38    43      1
    44    43    44      1
    45    43    45      1
    46    43    46      1
    47    44    47      1
    48    44    48      1
    49    44    49      1
    50    49    50      1
    51    49    51      1
    52    49    52      1
    53    50    53      1
    54    50    54      1
    55    50    55      1
    56    55    56      1
    57    55    57      1
    58    55    58      1
    59    56    59      1
    60    56    60      1
    61    56    61      1
    62    61    62      1
    63    61    63      1
    64    61    64      1
    65    62    65      1
    66    62    66      1
    67    62    67      1
    68    67    68      1
    69    67    69      1
    70    67    70      1
    71    68    71      1
    72    68    72      1
    73    68    73      1
    74    73    74      1
    75    73    75      1
    76    73    76      1
    77    74    77      1
    78    74    78      1
    79    74    79      1
    80    79    80      1
    81    79    81      1
    82    79    82      1
    83    80    83      1
    84    80    84      1
    85    80    85      1
    86    85    86      1
    87    85    87      1
    88    85    88      1
    89    86    89      1
    90    86    90      1
    91    86    91      1
    92    91    92      1
    93    91    93      1
    94    91    94      1
    95    92    95      1
    96    92    96      1
    97    92    97      1
    98    97    98      1
    99    97    99      1
   100    97   100      1
   101    98   101      1
   102    98   102      1
   103    98   103      1
   104   103   104      1
   105   103   105      1
   106   103   106      1
   107   104   107      1
   108   104   108      1
   109   104   109      1
   110   109   110      1
   111   109   111      1
   112   109   112      1
   113   110   113      1
   114   110   114      1
   115   110   115      1
   116   115   116      1
   117   115   117      1
   118   115   118      1
   119   116   119      1
   120   116   120      1
   121   116   121      1
   122   121   122      1
   123   121   123      1
   124   121   124      1
   125   122   125      1
   126   122   126      1
   127   122   127      1
   128   127   128      1
   129   127   129      1
   130   127   130      1
   131   128   131      1
   132   128   132      1
   133   128   133      1
   134   133   134      1
   135   133   135      1
   136   133   136      1
   137   134   137      1
   138   134   138      1
   139   134   139      1
   140   139   140      1
   141   139   141      1
   142   139   142      1
   143   140   143      1
   144   140   144      1
   145   140   145      1
   146   145   146      1
   147   145   147      1
   148   145   148      1
   149   146   149      1
   150   146   150      1
   151   146   151      1
   152   151   152      1
   153   151   153      1
   154   151   154      1
   155   152   155      1
   156   152   156      1
   157   152   157      1
   158   157   158      1
   159   157   159      1
   160   157   160      1
   161   158   161      1
   162   158   162      1
   163   158   163      1
   164   163   164      1
   165   163   165      1
   166   163   166      1
   167   164   167      1
   168   164   168      1
   169   164   169      1
   170   169   170      1
   171   169   171      1
   172   169   172      1
   173   170   173      1
   174   170   174      1
   175   170   175      1
   176   175   176      1
   177   175   177      1
   178   175   178      1
   179   176   179      1
   180   176   180      1
   181   176   181      1
   182   181   182      1
   183   181   183      1
   184   181   184      1
   185   182   185      1
   186   182   186      1
   187   182   187      1
   188   187   188      1
   189   187   189      1
   190   187   190      1
   191   188   191      1
   192   188   192      1
   193   188   193      1
   194   193   194      1
   195   193   195      1
   196   193   196      1
   197   194   197      1
   198   194   198      1
   199   194   199      1
   200   199   200      1
   201   199   201      1
   202   199   202      1
   203   200   203      1
   204   200   204      1
   205   200   205      1
   206   205   206      1
   207   205   207      1
   208   205   208      1
   209   206   209      1
   210   206   210      1
   211   206   211      1
   212   211   212      1
   213   211   213      1
   214   211   214      1
   215   212   215      1
   216   212   216      1
   217   212   217      1
   218   217   218      1
   219   217   219      1
   220   217   220      1
   221   218   221      1
   222   218   222      1
   223   218   223      1
   224   223   224      1
   225   223   225      1
   226   223   226      1
   227   224   227      1
   228   224   228      1
   229   224   229      1
   230   229   230      1
   231   229   231      1
   232   229   232      1
   233   230   233      1
   234   230   234      1
   235   230   235      1
   236   235   236      1
   237   235   237      1
   238   235   238      1
   239   236   239      1
   240   236   240      1
   241   236   241      1
   242   241   242      1
   243   241   243      1
   244   241   244      1
   245   242   245      1
   246   242   246      1
   247   242   247      1
   248   247   248      1
   249   247   249      1
   250   247   250      1
   251   248   251      1
   252   248   252      1
   253   248   253      1
   254   253   254      1
   255   253   255      1
   256   253   256      1
   257   254   257      1
   258   254   258      1
   259   254   259      1
   260   259   260      1
   261   259   261      1
   262   259   262      1
   263   260   263      1
   264   260   264      1
   265   260   265      1
   266   265   266      1
   267   265   267      1
   268   265   268      1
   269   266   269      1
   270   266   270      1
   271   266   271      1
   272   271   272      1
   273   271   273      1
   274   271   274      1
   275   272   275      1
   276   272   276      1
   277   272   277      1
   278   277   278      1
   279   277   279      1
   280   277   280      1
   281   278   281      1
   282   278   282      1
   283   278   283      1
   284   283   284      1
   285   283   285      1
   286   283   286      1
   287   284   287      1
   288   284   288      1
   289   284   289      1
   290   289   290      1
   291   289   291      1
   292   289   292      1
   293   290   293      1
   294   290   294      1
   295   290   295      1
   296   295   296      1
   297   295   297      1
   298   295   298      1
   299   296   299      1
   300   296   300      1
   301   296   301      1
   302   301   302      1
   303   301   303      1
   304   301   304      1
   305   302   305      1
   306   302   306      1
   307   302   307      1
   308   307   308      1
   309   307   309      1
   310   307   310      1
   311   308   311      1
   312   308   312      1
   313   308   313      1
   314   313   314      1
   315   313   315      1
   316   313   316      1
   317   314   317      1
   318   314   318      1
   319   314   319      1
   320   319   320      1
   321   319   321      1
   322   319   322      1
   323   320   323      1
   324   320   324      1
   325   320   325      1
   326   325   326      1
   327   325   327      1
   328   325   328      1
   329   326   329      1
   330   326   330      1
   331   326   331      1
   332   331   332      1
   333   331   333      1
   334   331   334      1
   335   332   335      1
   336   332   336      1
   337   332   337      1
   338   337   338      1
   339   337   339      1
   340   337   340      1
   341   338   341      1
   342   338   342      1
   343   338   343      1
   344   343   344      1
   345   343   345      1
   346   343   346      1
   347   344   347      1
   348   344   348      1
   349   344   349      1
   350   349   350      1
   351   349   351      1
   352   349   352      1
   353   350   353      1
   354   350   354      1
   355   350   355      1
   356   355   356      1
   357   355   357      1
   358   355   358      1
   359   356   359      1
   360   356   360      1
   361   356   361      1
   362   361   362      1
   363   361   363      1
   364   361   364      1
   365   362   365      1
   366   362   366      1
   367   362   367      1
   368   367   368      1
   369   367   369      1
   370   367   370      1
   371   368   371      1
   372   368   372      1
   373   368   373      1
   374   373   374      1
   375   373   375      1
   376   373   376      1
   377   374   377      1
   378   374   378      1
   379   374   379      1
   380   379   380      1
   381   379   381      1
   382   379   382      1
   383   380   383      1
   384   380   384      1
   385   380   385      1
   386   385   386      1
   387   385   387      1
   388   385   388      1
   389   386   389      1
   390   386   390      1
   391   386   391      1
   392   391   392      1
   393   391   393      1
   394   391   394      1
   395   392   395      1
   396   392   396      1
   397   392   397      1
   398   397   398      1
   399   397   399      1
   400   397   400      1
   401   398   401      1
   402   398   402      1
   403   398   403      1
   404   403   404      1
   405   403   405      1
   406   403   406      1
   407   404   407      1
   408   404   408      1
   409   404   409      1
   410   409   410      1
   411   409   411      1
   412   409   412      1
   413   410   413      1
   414   410   414      1
   415   410   415      1
   416   415   416      1
   417   415   417      1
   418   415   418      1
   419   416   419      1
   420   416   420      1
   421   416   421      1
   422   421   422      1
   423   421   423      1
   424   421   424      1
   425   422   425      1
   426   422   426      1
   427   422   427      1
   428   427   428      1
   429   427   429      1
   430   427   430      1
   431   428   431      1
   432   428   432      1
   433   428   433      1
   434   433   434      1
   435   433   435      1
   436   433   436      1
   437   434   437      1
   438   434   438      1
   439   434   439      1
   440   439   440      1
   441   439   441      1
   442   439   442      1
   443   440   443      1
   444   440   444      1
   445   440   445      1
   446   445   446      1
   447   445   447      1
   448   445   448      1
   449   446   449      1
   450   446   450      1
   451   446   451      1
   452   451   452      1
   453   451   453      1
   454   451   454      1
   455   452   455      1
   456   452   456      1
   457   452   457      1
   458   457   458      1
   459   457   459      1
   460   457   460      1
   461   458   461      1
   462   458   462      1
   463   458   463      1
   464   463   464      1
   465   463   465      1
   466   463   466      1
   467   464   467      1
   468   464   468      1
   469   464   469      H
