###
### Created by PolyChef-cpp17 on Thu Feb 27 19:40:28 2025
###

@<TRIPOS>MOLECULE
NO_INFO
302 301 1 0 0
SMALL
USER_CHARGES


@<TRIPOS>ATOM
      1 C          39.2798  174.4287  -39.3449 C.3       0        0    0.0000
      2 C          37.8706  174.2682  -38.7641 C.3       0        0    0.0000
      3 H          39.9271  173.6166  -38.9914 H         0        0    0.0000
      4 H          39.7280  175.3655  -38.9913 H         0        0    0.0000
      5 H          37.3719  175.2440  -38.7117 H         0        0    0.0000
      6 H          37.2613  173.6381  -39.4239 H         0        0    0.0000
      7 C          37.8874  173.6317  -37.3316 C.3       1        0    0.0000
      8 C          39.1654  173.9750  -36.5584 C.3       1        0    0.0000
      9 H          37.0074  173.9827  -36.7784 H         1        0    0.0000
     10 H          37.7862  172.5435  -37.4269 H         1        0    0.0000
     11 H          40.0454  173.8002  -37.1898 H         1        0    0.0000
     12 H          39.1721  175.0403  -36.2967 H         1        0    0.0000
     13 C          39.3101  173.1311  -35.2452 C.3       2        0    0.0000
     14 C          40.2031  173.8201  -34.2075 C.3       2        0    0.0000
     15 H          38.3117  172.9563  -34.8255 H         2        0    0.0000
     16 H          39.7212  172.1467  -35.5010 H         2        0    0.0000
     17 H          41.2586  173.7039  -34.4831 H         2        0    0.0000
     18 H          39.9985  174.8978  -34.1914 H         2        0    0.0000
     19 C          39.9911  173.2439  -32.7651 C.3       3        0    0.0000
     20 C          40.6118  174.1376  -31.6857 C.3       3        0    0.0000
     21 H          38.9151  173.1286  -32.5850 H         3        0    0.0000
     22 H          40.4279  172.2387  -32.7181 H         3        0    0.0000
     23 H          41.7010  174.1776  -31.8109 H         3        0    0.0000
     24 H          40.2445  175.1659  -31.7917 H         3        0    0.0000
     25 C          40.2880  173.6322  -30.2375 C.3       4        0    0.0000
     26 C          40.8859  174.5410  -29.1578 C.3       4        0    0.0000
     27 H          39.1990  173.5733  -30.1188 H         4        0    0.0000
     28 H          40.6728  172.6110  -30.1250 H         4        0    0.0000
     29 H          41.9754  174.5963  -29.2738 H         4        0    0.0000
     30 H          40.5045  175.5631  -29.2730 H         4        0    0.0000
     31 C          40.5568  174.0390  -27.7097 C.3       5        0    0.0000
     32 C          41.1415  174.9565  -26.6301 C.3       5        0    0.0000
     33 H          39.4675  173.9728  -27.5974 H         5        0    0.0000
     34 H          40.9482  173.0211  -27.5907 H         5        0    0.0000
     35 H          42.2310  175.0208  -26.7409 H         5        0    0.0000
     36 H          40.7518  175.9749  -26.7504 H         5        0    0.0000
     37 C          40.8095  174.4563  -25.1819 C.3       6        0    0.0000
     38 C          41.4447  175.3398  -24.1025 C.3       6        0    0.0000
     39 H          39.7199  174.4340  -25.0566 H         6        0    0.0000
     40 H          41.1601  173.4222  -25.0759 H         6        0    0.0000
     41 H          42.5336  175.3683  -24.2324 H         6        0    0.0000
     42 H          41.0882  176.3723  -24.2037 H         6        0    0.0000
     43 C          41.1217  174.8334  -22.6545 C.3       7        0    0.0000
     44 C          41.0689  175.9784  -21.6370 C.3       7        0    0.0000
     45 H          40.1627  174.3009  -22.6717 H         7        0    0.0000
     46 H          41.8831  174.1014  -22.3578 H         7        0    0.0000
     47 H          42.0610  176.4348  -21.5324 H         7        0    0.0000
     48 H          40.3951  176.7675  -21.9933 H         7        0    0.0000
     49 C          40.5826  175.4977  -20.2263 C.3       8        0    0.0000
     50 C          41.5537  175.8972  -19.1100 C.3       8        0    0.0000
     51 H          39.5899  175.9219  -20.0310 H         8        0    0.0000
     52 H          40.4610  174.4076  -20.2468 H         8        0    0.0000
     53 H          42.5886  175.8189  -19.4657 H         8        0    0.0000
     54 H          41.3951  176.9463  -18.8310 H         8        0    0.0000
     55 C          41.3897  175.0042  -17.8320 C.3       9        0    0.0000
     56 C          41.1473  175.8372  -16.5685 C.3       9        0    0.0000
     57 H          40.5553  174.3098  -17.9906 H         9        0    0.0000
     58 H          42.2913  174.3910  -17.7111 H         9        0    0.0000
     59 H          42.0824  176.3115  -16.2456 H         9        0    0.0000
     60 H          40.4402  176.6482  -16.7825 H         9        0    0.0000
     61 C          40.5841  174.9743  -15.3871 C.3      10        0    0.0000
     62 C          41.0316  175.5004  -14.0189 C.3      10        0    0.0000
     63 H          39.4887  174.9653  -15.4468 H        10        0    0.0000
     64 H          40.9153  173.9367  -15.5179 H        10        0    0.0000
     65 H          42.1191  175.6441  -14.0084 H        10        0    0.0000
     66 H          40.5822  176.4829  -13.8283 H        10        0    0.0000
     67 C          40.6389  174.5301  -12.8519 C.3      11        0    0.0000
     68 C          40.9075  175.1419  -11.4726 C.3      11        0    0.0000
     69 H          39.5769  174.2722  -12.9487 H        11        0    0.0000
     70 H          41.2017  173.5952  -12.9648 H        11        0    0.0000
     71 H          41.9766  175.3611  -11.3600 H        11        0    0.0000
     72 H          40.3780  176.0978  -11.3754 H        11        0    0.0000
     73 C          40.4602  174.1956  -10.3056 C.3      12        0    0.0000
     74 C          40.7478  174.7985   -8.9262 C.3      12        0    0.0000
     75 H          39.3878  173.9886  -10.4095 H        12        0    0.0000
     76 H          40.9782  173.2344  -10.4114 H        12        0    0.0000
     77 H          41.8198  175.0073   -8.8229 H        12        0    0.0000
     78 H          40.2282  175.7589   -8.8196 H        12        0    0.0000
     79 C          40.3028  173.8511   -7.7592 C.3      13        0    0.0000
     80 C          40.5766  174.4605   -6.3798 C.3      13        0    0.0000
     81 H          39.2332  173.6335   -7.8687 H        13        0    0.0000
     82 H          40.8308  172.8947   -7.8594 H        13        0    0.0000
     83 H          41.6476  174.6694   -6.2667 H        13        0    0.0000
     84 H          40.0563  175.4215   -6.2831 H        13        0    0.0000
     85 C          40.1194  173.5188   -5.2129 C.3      14        0    0.0000
     86 C          40.3066  174.1665   -3.8365 C.3      14        0    0.0000
     87 H          39.0654  173.2545   -5.3640 H        14        0    0.0000
     88 H          40.6900  172.5835   -5.2692 H        14        0    0.0000
     89 H          41.3578  174.4449   -3.6916 H        14        0    0.0000
     90 H          39.7238  175.0939   -3.7748 H        14        0    0.0000
     91 C          39.8698  173.2165   -2.6685 C.3      15        0    0.0000
     92 C          40.3194  173.7359   -1.2984 C.3      15        0    0.0000
     93 H          38.7784  173.1083   -2.6901 H        15        0    0.0000
     94 H          40.2890  172.2188   -2.8486 H        15        0    0.0000
     95 H          41.1443  174.4491   -1.4186 H        15        0    0.0000
     96 H          39.4993  174.2813   -0.8152 H        15        0    0.0000
     97 C          40.7858  172.5793   -0.3484 C.3      16        0    0.0000
     98 C          41.9575  172.9991    0.5459 C.3      16        0    0.0000
     99 H          39.9354  172.2643    0.2689 H        16        0    0.0000
    100 H          41.0699  171.7132   -0.9589 H        16        0    0.0000
    101 H          41.9957  174.0925    0.6274 H        16        0    0.0000
    102 H          41.8125  172.6123    1.5622 H        16        0    0.0000
    103 C          43.3346  172.4847    0.0012 C.3      17        0    0.0000
    104 C          44.4801  172.7362    0.9880 C.3      17        0    0.0000
    105 H          43.2516  171.4120   -0.2132 H        17        0    0.0000
    106 H          43.5449  172.9816   -0.9540 H        17        0    0.0000
    107 H          45.0118  173.6576    0.7200 H        17        0    0.0000
    108 H          44.0800  172.8858    1.9985 H        17        0    0.0000
    109 C          45.5065  171.5518    1.0211 C.3      18        0    0.0000
    110 C          45.9772  171.2308    2.4439 C.3      18        0    0.0000
    111 H          45.0401  170.6670    0.5705 H        18        0    0.0000
    112 H          46.3658  171.8109    0.3901 H        18        0    0.0000
    113 H          47.0586  171.0462    2.4497 H        18        0    0.0000
    114 H          45.8008  172.0909    3.1016 H        18        0    0.0000
    115 C          45.2478  169.9790    3.0427 C.3      19        0    0.0000
    116 C          45.9857  169.4018    4.2557 C.3      19        0    0.0000
    117 H          44.2271  170.2659    3.3248 H        19        0    0.0000
    118 H          45.1555  169.2156    2.2602 H        19        0    0.0000
    119 H          46.9986  169.0938    3.9681 H        19        0    0.0000
    120 H          46.0982  170.1718    5.0290 H        19        0    0.0000
    121 C          45.2393  168.1698    4.8741 C.3      20        0    0.0000
    122 C          45.1075  168.2753    6.3974 C.3      20        0    0.0000
    123 H          44.2460  168.0912    4.4151 H        20        0    0.0000
    124 H          45.7835  167.2556    4.6061 H        20        0    0.0000
    125 H          45.9659  167.7953    6.8835 H        20        0    0.0000
    126 H          45.1202  169.3285    6.7041 H        20        0    0.0000
    127 C          43.7902  167.6106    6.9272 C.3      21        0    0.0000
    128 C          43.1432  168.4220    8.0550 C.3      21        0    0.0000
    129 H          43.0881  167.5020    6.0913 H        21        0    0.0000
    130 H          44.0217  166.5972    7.2778 H        21        0    0.0000
    131 H          43.6611  168.2284    9.0026 H        21        0    0.0000
    132 H          43.2464  169.4954    7.8532 H        21        0    0.0000
    133 C          41.6225  168.0851    8.2323 C.3      22        0    0.0000
    134 C          41.3373  167.3659    9.5554 C.3      22        0    0.0000
    135 H          41.0453  169.0165    8.1785 H        22        0    0.0000
    136 H          41.2973  167.4637    7.3887 H        22        0    0.0000
    137 H          42.2260  166.8113    9.8812 H        22        0    0.0000
    138 H          41.1171  168.0984   10.3419 H        22        0    0.0000
    139 C          40.1330  166.3688    9.4420 C.3      23        0    0.0000
    140 C          38.9905  166.7267   10.3990 C.3      23        0    0.0000
    141 H          39.7703  166.3687    8.4066 H        23        0    0.0000
    142 H          40.4936  165.3537    9.6497 H        23        0    0.0000
    143 H          39.2323  166.3918   11.4153 H        23        0    0.0000
    144 H          38.8674  167.8158   10.4471 H        23        0    0.0000
    145 C          37.6286  166.0828    9.9654 C.3      24        0    0.0000
    146 C          36.7046  165.8191   11.1594 C.3      24        0    0.0000
    147 H          37.1349  166.7496    9.2477 H        24        0    0.0000
    148 H          37.8340  165.1451    9.4344 H        24        0    0.0000
    149 H          37.2496  165.2818   11.9454 H        24        0    0.0000
    150 H          36.3756  166.7696   11.5975 H        24        0    0.0000
    151 C          35.4405  164.9829   10.7590 C.3      25        0    0.0000
    152 C          35.1342  163.8727   11.7703 C.3      25        0    0.0000
    153 H          34.5816  165.6600   10.6721 H        25        0    0.0000
    154 H          35.6030  164.5509    9.7638 H        25        0    0.0000
    155 H          36.0637  163.5190   12.2334 H        25        0    0.0000
    156 H          34.5076  164.2648   12.5810 H        25        0    0.0000
    157 C          34.4025  162.6534   11.1105 C.3      26        0    0.0000
    158 C          32.8853  162.7027   11.3221 C.3      26        0    0.0000
    159 H          34.6325  162.6411   10.0379 H        26        0    0.0000
    160 H          34.8110  161.7261   11.5310 H        26        0    0.0000
    161 H          32.5079  161.7038   11.5736 H        26        0    0.0000
    162 H          32.6449  163.3535   12.1719 H        26        0    0.0000
    163 C          32.1254  163.2255   10.0545 C.3      27        0    0.0000
    164 C          31.0319  162.2563    9.5919 C.3      27        0    0.0000
    165 H          31.6875  164.2050   10.2837 H        27        0    0.0000
    166 H          32.8516  163.3860    9.2480 H        27        0    0.0000
    167 H          30.7506  161.5865   10.4139 H        27        0    0.0000
    168 H          30.1279  162.8132    9.3157 H        27        0    0.0000
    169 C          31.4856  161.3898    8.3668 C.3      28        0    0.0000
    170 C          30.3704  161.2225    7.3289 C.3      28        0    0.0000
    171 H          32.3617  161.8617    7.9049 H        28        0    0.0000
    172 H          31.8118  160.4073    8.7301 H        28        0    0.0000
    173 H          29.6196  160.5111    7.6947 H        28        0    0.0000
    174 H          29.8518  162.1773    7.1767 H        28        0    0.0000
    175 C          30.9146  160.7175    5.9482 C.3      29        0    0.0000
    176 C          29.9554  159.7325    5.2709 C.3      29        0    0.0000
    177 H          31.0857  161.5838    5.2973 H        29        0    0.0000
    178 H          31.8915  160.2436    6.1051 H        29        0    0.0000
    179 H          29.6155  158.9809    5.9941 H        29        0    0.0000
    180 H          29.0597  160.2604    4.9207 H        29        0    0.0000
    181 C          30.6181  158.9995    4.0540 C.3      30        0    0.0000
    182 C          29.6400  158.0614    3.3381 C.3      30        0    0.0000
    183 H          30.9991  159.7521    3.3526 H        30        0    0.0000
    184 H          31.4874  158.4343    4.4123 H        30        0    0.0000
    185 H          29.2864  157.2873    4.0304 H        30        0    0.0000
    186 H          28.7543  158.6200    3.0110 H        30        0    0.0000
    187 C          30.2881  157.3665    2.0913 C.3      31        0    0.0000
    188 C          29.2542  156.6242    1.2373 C.3      31        0    0.0000
    189 H          30.7980  158.1275    1.4877 H        31        0    0.0000
    190 H          31.0609  156.6689    2.4372 H        31        0    0.0000
    191 H          28.8203  155.7944    1.8088 H        31        0    0.0000
    192 H          28.4263  157.2966    0.9802 H        31        0    0.0000
    193 C          29.8740  156.0568   -0.0860 C.3      32        0    0.0000
    194 C          28.8395  155.9469   -1.2115 C.3      32        0    0.0000
    195 H          30.7005  156.7078   -0.3970 H        32        0    0.0000
    196 H          30.3100  155.0717    0.1217 H        32        0    0.0000
    197 H          28.1785  155.0898   -1.0324 H        32        0    0.0000
    198 H          28.2017  156.8393   -1.2246 H        32        0    0.0000
    199 C          29.5087  155.7833   -2.6197 C.3      33        0    0.0000
    200 C          28.5279  156.0596   -3.7645 C.3      33        0    0.0000
    201 H          30.3654  156.4654   -2.6854 H        33        0    0.0000
    202 H          29.9091  154.7655   -2.7048 H        33        0    0.0000
    203 H          27.7116  155.3269   -3.7456 H        33        0    0.0000
    204 H          28.0678  157.0472   -3.6355 H        33        0    0.0000
    205 C          29.2230  156.0056   -5.1685 C.3      34        0    0.0000
    206 C          28.2177  156.1234   -6.3194 C.3      34        0    0.0000
    207 H          29.9609  156.8152   -5.2292 H        34        0    0.0000
    208 H          29.7806  155.0644   -5.2510 H        34        0    0.0000
    209 H          27.4610  155.3331   -6.2403 H        34        0    0.0000
    210 H          27.6829  157.0792   -6.2553 H        34        0    0.0000
    211 C          28.9077  156.0237   -7.7235 C.3      35        0    0.0000
    212 C          27.9058  156.1670   -8.8745 C.3      35        0    0.0000
    213 H          29.6772  156.8023   -7.7954 H        35        0    0.0000
    214 H          29.4270  155.0600   -7.7946 H        35        0    0.0000
    215 H          27.1385  155.3861   -8.8047 H        35        0    0.0000
    216 H          27.3837  157.1291   -8.8011 H        35        0    0.0000
    217 C          28.5965  156.0727  -10.2786 C.3      36        0    0.0000
    218 C          27.5951  156.2194  -11.4295 C.3      36        0    0.0000
    219 H          29.3655  156.8521  -10.3474 H        36        0    0.0000
    220 H          29.1166  155.1096  -10.3528 H        36        0    0.0000
    221 H          26.8267  155.4394  -11.3612 H        36        0    0.0000
    222 H          27.0744  157.1821  -11.3547 H        36        0    0.0000
    223 C          28.2861  156.1264  -12.8336 C.3      37        0    0.0000
    224 C          27.2776  156.2162  -13.9843 C.3      37        0    0.0000
    225 H          29.0257  156.9322  -12.9178 H        37        0    0.0000
    226 H          28.8411  155.1819  -12.8927 H        37        0    0.0000
    227 H          26.5341  155.4143  -13.8964 H        37        0    0.0000
    228 H          26.7272  157.1636  -13.9290 H        37        0    0.0000
    229 C          27.9675  156.1139  -15.3882 C.3      38        0    0.0000
    230 C          27.0834  156.6666  -16.5115 C.3      38        0    0.0000
    231 H          28.9188  156.6594  -15.3553 H        38        0    0.0000
    232 H          28.2136  155.0632  -15.5856 H        38        0    0.0000
    233 H          26.1580  156.0819  -16.5841 H        38        0    0.0000
    234 H          26.7872  157.6982  -16.2841 H        38        0    0.0000
    235 C          27.8061  156.6434  -17.9024 C.3      39        0    0.0000
    236 C          26.9529  155.9804  -18.9894 C.3      39        0    0.0000
    237 H          28.0498  157.6732  -18.1915 H        39        0    0.0000
    238 H          28.7599  156.1118  -17.7965 H        39        0    0.0000
    239 H          26.4928  155.0639  -18.5996 H        39        0    0.0000
    240 H          26.1311  156.6461  -19.2808 H        39        0    0.0000
    241 C          27.7898  155.6223  -20.2656 C.3      40        0    0.0000
    242 C          27.2077  156.2499  -21.5369 C.3      40        0    0.0000
    243 H          28.8227  155.9612  -20.1178 H        40        0    0.0000
    244 H          27.8281  154.5307  -20.3686 H        40        0    0.0000
    245 H          26.3208  155.6909  -21.8603 H        40        0    0.0000
    246 H          26.8763  157.2755  -21.3324 H        40        0    0.0000
    247 C          28.2435  156.2787  -22.7133 C.3      41        0    0.0000
    248 C          27.5667  156.1898  -24.0855 C.3      41        0    0.0000
    249 H          28.8323  157.2018  -22.6434 H        41        0    0.0000
    250 H          28.9465  155.4462  -22.5859 H        41        0    0.0000
    251 H          26.8722  155.3408  -24.1080 H        41        0    0.0000
    252 H          26.9687  157.0910  -24.2691 H        41        0    0.0000
    253 C          28.6035  156.0254  -25.2498 C.3      42        0    0.0000
    254 C          27.9435  156.1050  -26.6308 C.3      42        0    0.0000
    255 H          29.3697  156.8046  -25.1535 H        42        0    0.0000
    256 H          29.1166  155.0628  -25.1330 H        42        0    0.0000
    257 H          27.2016  155.3042  -26.7398 H        42        0    0.0000
    258 H          27.4014  157.0531  -26.7345 H        42        0    0.0000
    259 C          28.9866  155.9893  -27.7952 C.3      43        0    0.0000
    260 C          28.3267  156.0686  -29.1762 C.3      43        0    0.0000
    261 H          29.7285  156.7902  -27.6863 H        43        0    0.0000
    262 H          29.5289  155.0413  -27.6914 H        43        0    0.0000
    263 H          27.5839  155.2686  -29.2847 H        43        0    0.0000
    264 H          27.7855  157.0172  -29.2806 H        43        0    0.0000
    265 C          29.3696  155.9511  -30.3407 C.3      44        0    0.0000
    266 C          28.7093  156.0274  -31.7217 C.3      44        0    0.0000
    267 H          30.1111  156.7525  -30.2335 H        44        0    0.0000
    268 H          29.9123  155.0036  -30.2351 H        44        0    0.0000
    269 H          27.9685  155.2254  -31.8293 H        44        0    0.0000
    270 H          28.1657  156.9745  -31.8270 H        44        0    0.0000
    271 C          29.7523  155.9114  -32.8862 C.3      45        0    0.0000
    272 C          29.0913  155.9812  -34.2672 C.3      45        0    0.0000
    273 H          30.4904  156.7162  -32.7813 H        45        0    0.0000
    274 H          30.2991  154.9664  -32.7783 H        45        0    0.0000
    275 H          28.3539  155.1758  -34.3725 H        45        0    0.0000
    276 H          28.5437  156.9257  -34.3748 H        45        0    0.0000
    277 C          30.1345  155.8665  -35.4317 C.3      46        0    0.0000
    278 C          29.4736  155.9378  -36.8127 C.3      46        0    0.0000
    279 H          30.8725  156.6713  -35.3259 H        46        0    0.0000
    280 H          30.6813  154.9215  -35.3248 H        46        0    0.0000
    281 H          28.7345  155.1340  -36.9181 H        46        0    0.0000
    282 H          28.9280  156.8835  -36.9203 H        46        0    0.0000
    283 C          30.5166  155.8210  -37.9772 C.3      47        0    0.0000
    284 C          29.8561  155.8958  -39.3582 C.3      47        0    0.0000
    285 H          31.2571  156.6234  -37.8705 H        47        0    0.0000
    286 H          31.0605  154.8742  -37.8711 H        47        0    0.0000
    287 H          29.1204  155.0893  -39.4675 H        47        0    0.0000
    288 H          29.3066  156.8397  -39.4618 H        47        0    0.0000
    289 C          30.9001  155.7885  -40.5227 C.3      48        0    0.0000
    290 C          30.2393  155.8599  -41.9037 C.3      48        0    0.0000
    291 H          31.6344  156.5964  -40.4148 H        48        0    0.0000
    292 H          31.4513  154.8457  -40.4177 H        48        0    0.0000
    293 H          31.0060  155.9453  -42.6837 H        48        0    0.0000
    294 H          29.6871  154.9335  -42.1049 H        48        0    0.0000
    295 C          29.2540  157.0728  -42.0288 C.3      49        0    0.0000
    296 C          28.2481  156.8886  -43.1705 C.3      49        0    0.0000
    297 H          28.7236  157.1972  -41.0766 H        49        0    0.0000
    298 H          29.8380  157.9881  -42.1860 H        49        0    0.0000
    299 H          28.7785  156.7642  -44.1227 H        49        0    0.0000
    300 H          27.6641  155.9733  -43.0132 H        49        0    0.0000
    301 H          27.5630  157.7319  -43.2574 H        49        0    0.0000
    302 H          39.2798  174.4287  -40.4349 H         0        0    0.0000
@<TRIPOS>BOND
     1     1     2      1
     2     1     3      1
     3     1     4      1
     4     1   302      H
     5     2     5      1
     6     2     6      1
     7     2     7      1
     8     7     8      1
     9     7     9      1
    10     7    10      1
    11     8    11      1
    12     8    12      1
    13     8    13      1
    14    13    14      1
    15    13    15      1
    16    13    16      1
    17    14    17      1
    18    14    18      1
    19    14    19      1
    20    19    20      1
    21    19    21      1
    22    19    22      1
    23    20    23      1
    24    20    24      1
    25    20    25      1
    26    25    26      1
    27    25    27      1
    28    25    28      1
    29    26    29      1
    30    26    30      1
    31    26    31      1
    32    31    32      1
    33    31    33      1
    34    31    34      1
    35    32    35      1
    36    32    36      1
    37    32    37      1
    38    37    38      1
    39    37    39      1
    40    37    40      1
    41    38    41      1
    42    38    42      1
    43    38    43      1
    44    43    44      1
    45    43    45      1
    46    43    46      1
    47    44    47      1
    48    44    48      1
    49    44    49      1
    50    49    50      1
    51    49    51      1
    52    49    52      1
    53    50    53      1
    54    50    54      1
    55    50    55      1
    56    55    56      1
    57    55    57      1
    58    55    58      1
    59    56    59      1
    60    56    60      1
    61    56    61      1
    62    61    62      1
    63    61    63      1
    64    61    64      1
    65    62    65      1
    66    62    66      1
    67    62    67      1
    68    67    68      1
    69    67    69      1
    70    67    70      1
    71    68    71      1
    72    68    72      1
    73    68    73      1
    74    73    74      1
    75    73    75      1
    76    73    76      1
    77    74    77      1
    78    74    78      1
    79    74    79      1
    80    79    80      1
    81    79    81      1
    82    79    82      1
    83    80    83      1
    84    80    84      1
    85    80    85      1
    86    85    86      1
    87    85    87      1
    88    85    88      1
    89    86    89      1
    90    86    90      1
    91    86    91      1
    92    91    92      1
    93    91    93      1
    94    91    94      1
    95    92    95      1
    96    92    96      1
    97    92    97      1
    98    97    98      1
    99    97    99      1
   100    97   100      1
   101    98   101      1
   102    98   102      1
   103    98   103      1
   104   103   104      1
   105   103   105      1
   106   103   106      1
   107   104   107      1
   108   104   108      1
   109   104   109      1
   110   109   110      1
   111   109   111      1
   112   109   112      1
   113   110   113      1
   114   110   114      1
   115   110   115      1
   116   115   116      1
   117   115   117      1
   118   115   118      1
   119   116   119      1
   120   116   120      1
   121   116   121      1
   122   121   122      1
   123   121   123      1
   124   121   124      1
   125   122   125      1
   126   122   126      1
   127   122   127      1
   128   127   128      1
   129   127   129      1
   130   127   130      1
   131   128   131      1
   132   128   132      1
   133   128   133      1
   134   133   134      1
   135   133   135      1
   136   133   136      1
   137   134   137      1
   138   134   138      1
   139   134   139      1
   140   139   140      1
   141   139   141      1
   142   139   142      1
   143   140   143      1
   144   140   144      1
   145   140   145      1
   146   145   146      1
   147   145   147      1
   148   145   148      1
   149   146   149      1
   150   146   150      1
   151   146   151      1
   152   151   152      1
   153   151   153      1
   154   151   154      1
   155   152   155      1
   156   152   156      1
   157   152   157      1
   158   157   158      1
   159   157   159      1
   160   157   160      1
   161   158   161      1
   162   158   162      1
   163   158   163      1
   164   163   164      1
   165   163   165      1
   166   163   166      1
   167   164   167      1
   168   164   168      1
   169   164   169      1
   170   169   170      1
   171   169   171      1
   172   169   172      1
   173   170   173      1
   174   170   174      1
   175   170   175      1
   176   175   176      1
   177   175   177      1
   178   175   178      1
   179   176   179      1
   180   176   180      1
   181   176   181      1
   182   181   182      1
   183   181   183      1
   184   181   184      1
   185   182   185      1
   186   182   186      1
   187   182   187      1
   188   187   188      1
   189   187   189      1
   190   187   190      1
   191   188   191      1
   192   188   192      1
   193   188   193      1
   194   193   194      1
   195   193   195      1
   196   193   196      1
   197   194   197      1
   198   194   198      1
   199   194   199      1
   200   199   200      1
   201   199   201      1
   202   199   202      1
   203   200   203      1
   204   200   204      1
   205   200   205      1
   206   205   206      1
   207   205   207      1
   208   205   208      1
   209   206   209      1
   210   206   210      1
   211   206   211      1
   212   211   212      1
   213   211   213      1
   214   211   214      1
   215   212   215      1
   216   212   216      1
   217   212   217      1
   218   217   218      1
   219   217   219      1
   220   217   220      1
   221   218   221      1
   222   218   222      1
   223   218   223      1
   224   223   224      1
   225   223   225      1
   226   223   226      1
   227   224   227      1
   228   224   228      1
   229   224   229      1
   230   229   230      1
   231   229   231      1
   232   229   232      1
   233   230   233      1
   234   230   234      1
   235   230   235      1
   236   235   236      1
   237   235   237      1
   238   235   238      1
   239   236   239      1
   240   236   240      1
   241   236   241      1
   242   241   242      1
   243   241   243      1
   244   241   244      1
   245   242   245      1
   246   242   246      1
   247   242   247      1
   248   247   248      1
   249   247   249      1
   250   247   250      1
   251   248   251      1
   252   248   252      1
   253   248   253      1
   254   253   254      1
   255   253   255      1
   256   253   256      1
   257   254   257      1
   258   254   258      1
   259   254   259      1
   260   259   260      1
   261   259   261      1
   262   259   262      1
   263   260   263      1
   264   260   264      1
   265   260   265      1
   266   265   266      1
   267   265   267      1
   268   265   268      1
   269   266   269      1
   270   266   270      1
   271   266   271      1
   272   271   272      1
   273   271   273      1
   274   271   274      1
   275   272   275      1
   276   272   276      1
   277   272   277      1
   278   277   278      1
   279   277   279      1
   280   277   280      1
   281   278   281      1
   282   278   282      1
   283   278   283      1
   284   283   284      1
   285   283   285      1
   286   283   286      1
   287   284   287      1
   288   284   288      1
   289   284   289      1
   290   289   290      1
   291   289   291      1
   292   289   292      1
   293   290   293      1
   294   290   294      1
   295   290   295      1
   296   295   296      1
   297   295   297      1
   298   295   298      1
   299   296   299      1
   300   296   300      1
   301   296   301      H
