###
### Created by PolyChef-cpp17 on Thu Feb 27 19:40:30 2025
###

@<TRIPOS>MOLECULE
NO_INFO
164 163 1 0 0
SMALL
USER_CHARGES


@<TRIPOS>ATOM
      1 C          19.2798   35.8687  120.6551 C.3       0        0    0.0000
      2 C          18.4513   34.7175  120.0742 C.3       0        0    0.0000
      3 H          18.8875   36.8302  120.3015 H         0        0    0.0000
      4 H          20.3162   35.8021  120.3014 H         0        0    0.0000
      5 H          18.4075   33.8871  120.7898 H         0        0    0.0000
      6 H          17.4175   35.0447  119.9077 H         0        0    0.0000
      7 C          19.0378   34.1875  118.7205 C.3       1        0    0.0000
      8 C          19.6324   35.3118  117.8653 C.3       1        0    0.0000
      9 H          19.8052   33.4345  118.9383 H         1        0    0.0000
     10 H          18.2415   33.6747  118.1668 H         1        0    0.0000
     11 H          18.9384   36.1604  117.8241 H         1        0    0.0000
     12 H          20.5576   35.6834  118.3230 H         1        0    0.0000
     13 C          19.9452   34.8435  116.4023 C.3       2        0    0.0000
     14 C          19.8820   35.9983  115.3967 C.3       2        0    0.0000
     15 H          20.9406   34.3826  116.3838 H         2        0    0.0000
     16 H          19.2302   34.0603  116.1212 H         2        0    0.0000
     17 H          18.9594   36.5738  115.5423 H         2        0    0.0000
     18 H          20.7155   36.6911  115.5665 H         2        0    0.0000
     19 C          19.9360   35.4972  113.9123 C.3       3        0    0.0000
     20 C          19.8201   36.6476  112.9062 C.3       3        0    0.0000
     21 H          20.8765   34.9544  113.7563 H         3        0    0.0000
     22 H          19.1255   34.7752  113.7531 H         3        0    0.0000
     23 H          18.8851   37.1976  113.0698 H         3        0    0.0000
     24 H          20.6374   37.3636  113.0578 H         3        0    0.0000
     25 C          19.8575   36.1448  111.4219 C.3       4        0    0.0000
     26 C          19.9111   37.3017  110.4180 C.3       4        0    0.0000
     27 H          20.7300   35.4927  111.2913 H         4        0    0.0000
     28 H          18.9710   35.5260  111.2358 H         4        0    0.0000
     29 H          19.0276   37.9416  110.5339 H         4        0    0.0000
     30 H          20.7857   37.9330  110.6178 H         4        0    0.0000
     31 C          19.9793   36.7985  108.9348 C.3       5        0    0.0000
     32 C          18.9484   37.4926  108.0380 C.3       5        0    0.0000
     33 H          20.9914   36.9722  108.5488 H         5        0    0.0000
     34 H          19.8191   35.7133  108.9219 H         5        0    0.0000
     35 H          17.9845   37.5626  108.5572 H         5        0    0.0000
     36 H          19.2668   38.5206  107.8248 H         5        0    0.0000
     37 C          18.7374   36.7373  106.6806 C.3       6        0    0.0000
     38 C          19.1151   37.5996  105.4712 C.3       6        0    0.0000
     39 H          19.3375   35.8190  106.6900 H         6        0    0.0000
     40 H          17.6877   36.4268  106.6082 H         6        0    0.0000
     41 H          18.2507   38.1924  105.1472 H         6        0    0.0000
     42 H          19.9005   38.3135  105.7487 H         6        0    0.0000
     43 C          19.6192   36.7387  104.2619 C.3       7        0    0.0000
     44 C          19.0477   37.2240  102.9252 C.3       7        0    0.0000
     45 H          20.7154   36.7721  104.2367 H         7        0    0.0000
     46 H          19.3398   35.6916  104.4325 H         7        0    0.0000
     47 H          17.9655   37.3807  103.0134 H         7        0    0.0000
     48 H          19.4857   38.1940  102.6588 H         7        0    0.0000
     49 C          19.3182   36.2104  101.7603 C.3       8        0    0.0000
     50 C          19.1698   36.8591  100.3797 C.3       8        0    0.0000
     51 H          20.3289   35.7999  101.8764 H         8        0    0.0000
     52 H          18.6227   35.3674  101.8565 H         8        0    0.0000
     53 H          18.1368   37.1975  100.2321 H         8        0    0.0000
     54 H          19.8059   37.7504  100.3125 H         8        0    0.0000
     55 C          19.5508   35.8778   99.2181 C.3       9        0    0.0000
     56 C          19.3309   36.5012   97.8354 C.3       9        0    0.0000
     57 H          20.6009   35.5824   99.3349 H         9        0    0.0000
     58 H          18.9534   34.9631   99.3177 H         9        0    0.0000
     59 H          18.2846   36.8120   97.7250 H         9        0    0.0000
     60 H          19.9413   37.4065   97.7295 H         9        0    0.0000
     61 C          19.6892   35.5115   96.6737 C.3      10        0    0.0000
     62 C          19.4617   36.1322   95.2909 C.3      10        0    0.0000
     63 H          20.7372   35.2052   96.7807 H        10        0    0.0000
     64 H          19.0830   34.6037   96.7829 H        10        0    0.0000
     65 H          18.4146   36.4419   95.1853 H        10        0    0.0000
     66 H          20.0709   37.0378   95.1803 H        10        0    0.0000
     67 C          19.8149   35.1406   94.1292 C.3      11        0    0.0000
     68 C          19.5959   35.7643   92.7464 C.3      11        0    0.0000
     69 H          20.8601   34.8258   94.2385 H        11        0    0.0000
     70 H          19.2011   34.2377   94.2361 H        11        0    0.0000
     71 H          18.5503   36.0778   92.6365 H        11        0    0.0000
     72 H          20.2085   36.6682   92.6401 H        11        0    0.0000
     73 C          19.9511   34.7735   91.5847 C.3      12        0    0.0000
     74 C          19.7351   35.3983   90.2020 C.3      12        0    0.0000
     75 H          20.9960   34.4583   91.6960 H        12        0    0.0000
     76 H          19.3368   33.8707   91.6897 H        12        0    0.0000
     77 H          18.6916   35.7188   90.0929 H        12        0    0.0000
     78 H          20.3538   36.2979   90.0949 H        12        0    0.0000
     79 C          20.0826   34.4048   89.0403 C.3      13        0    0.0000
     80 C          19.8639   35.0286   87.6575 C.3      13        0    0.0000
     81 H          21.1268   34.0860   89.1482 H        13        0    0.0000
     82 H          19.4655   33.5043   89.1486 H        13        0    0.0000
     83 H          18.8204   35.3500   87.5507 H        13        0    0.0000
     84 H          20.4832   35.9275   87.5481 H        13        0    0.0000
     85 C          20.2076   34.0337   86.4958 C.3      14        0    0.0000
     86 C          19.9823   34.6553   85.1131 C.3      14        0    0.0000
     87 H          21.2525   33.7162   86.5998 H        14        0    0.0000
     88 H          19.5918   33.1328   86.6080 H        14        0    0.0000
     89 H          18.9317   34.9503   84.9999 H        14        0    0.0000
     90 H          20.5792   35.5700   85.0100 H        14        0    0.0000
     91 C          20.3591   33.6725   83.9514 C.3      15        0    0.0000
     92 C          20.1317   34.2932   82.5686 C.3      15        0    0.0000
     93 H          21.4101   33.3788   84.0636 H        15        0    0.0000
     94 H          19.7634   32.7572   84.0554 H        15        0    0.0000
     95 H          19.0860   34.6086   82.4652 H        15        0    0.0000
     96 H          20.7454   35.1955   82.4558 H        15        0    0.0000
     97 C          20.4768   33.2989   81.4069 C.3      16        0    0.0000
     98 C          20.2568   33.9222   80.0241 C.3      16        0    0.0000
     99 H          21.5208   32.9792   81.5136 H        16        0    0.0000
    100 H          19.8590   32.3989   81.5165 H        16        0    0.0000
    101 H          21.1950   33.9172   79.4557 H        16        0    0.0000
    102 H          19.5382   33.3229   79.4514 H        16        0    0.0000
    103 C          19.7281   35.3953   80.1138 C.3      17        0    0.0000
    104 C          19.3117   35.9472   78.7460 C.3      17        0    0.0000
    105 H          18.8774   35.4241   80.8059 H        17        0    0.0000
    106 H          20.5118   36.0262   80.5513 H        17        0    0.0000
    107 H          20.1998   36.2397   78.1722 H        17        0    0.0000
    108 H          18.8037   35.1678   78.1646 H        17        0    0.0000
    109 C          18.3597   37.1864   78.8702 C.3      18        0    0.0000
    110 C          17.9646   37.7547   77.5027 C.3      18        0    0.0000
    111 H          17.4626   36.8888   79.4272 H        18        0    0.0000
    112 H          18.8600   37.9583   79.4680 H        18        0    0.0000
    113 H          17.2797   37.0660   76.9927 H        18        0    0.0000
    114 H          17.4233   38.7003   77.6304 H        18        0    0.0000
    115 C          19.2082   38.0049   76.5815 C.3      19        0    0.0000
    116 C          18.8053   38.3951   75.1552 C.3      19        0    0.0000
    117 H          19.8254   38.7947   77.0275 H        19        0    0.0000
    118 H          19.8233   37.0967   76.5636 H        19        0    0.0000
    119 H          19.4116   39.2424   74.8115 H        19        0    0.0000
    120 H          19.0061   37.5645   74.4671 H        19        0    0.0000
    121 C          17.2900   38.7828   75.0508 C.3      20        0    0.0000
    122 C          16.9364   39.3816   73.6850 C.3      20        0    0.0000
    123 H          16.6825   37.8887   75.2382 H        20        0    0.0000
    124 H          17.0523   39.4980   75.8480 H        20        0    0.0000
    125 H          17.6920   39.0968   72.9424 H        20        0    0.0000
    126 H          15.9799   38.9761   73.3327 H        20        0    0.0000
    127 C          16.8364   40.9454   73.7298 C.3      21        0    0.0000
    128 C          16.3720   41.5363   72.3940 C.3      21        0    0.0000
    129 H          16.1426   41.2326   74.5296 H        21        0    0.0000
    130 H          17.8173   41.3548   74.0015 H        21        0    0.0000
    131 H          15.3796   41.9899   72.5081 H        21        0    0.0000
    132 H          17.0513   42.3390   72.0814 H        21        0    0.0000
    133 C          16.3072   40.4581   71.2579 C.3      22        0    0.0000
    134 C          15.7215   41.0191   69.9575 C.3      22        0    0.0000
    135 H          17.3183   40.0716   71.0792 H        22        0    0.0000
    136 H          15.7037   39.6115   71.6079 H        22        0    0.0000
    137 H          16.3715   40.7639   69.1113 H        22        0    0.0000
    138 H          14.7461   40.5595   69.7552 H        22        0    0.0000
    139 C          15.5458   42.5760   70.0080 C.3      23        0    0.0000
    140 C          14.8662   43.1250   68.7488 C.3      23        0    0.0000
    141 H          14.9579   42.8368   70.8968 H        23        0    0.0000
    142 H          16.5321   43.0392   70.1356 H        23        0    0.0000
    143 H          15.0874   42.4792   67.8900 H        23        0    0.0000
    144 H          13.7766   43.1180   68.8759 H        23        0    0.0000
    145 C          15.3265   44.5857   68.4142 C.3      24        0    0.0000
    146 C          14.6357   45.1403   67.1635 C.3      24        0    0.0000
    147 H          15.1155   45.2294   69.2772 H        24        0    0.0000
    148 H          16.4148   44.5907   68.2762 H        24        0    0.0000
    149 H          14.0700   46.0456   67.4165 H        24        0    0.0000
    150 H          15.3856   45.4352   66.4190 H        24        0    0.0000
    151 C          13.6599   44.1000   66.5132 C.3      25        0    0.0000
    152 C          12.8479   44.7054   65.3629 C.3      25        0    0.0000
    153 H          14.2444   43.2449   66.1516 H        25        0    0.0000
    154 H          12.9853   43.7154   67.2881 H        25        0    0.0000
    155 H          12.8737   44.0383   64.4923 H        25        0    0.0000
    156 H          11.7948   44.8011   65.6554 H        25        0    0.0000
    157 C          13.3836   46.1153   64.9352 C.3      26        0    0.0000
    158 C          12.4806   46.7890   63.8960 C.3      26        0    0.0000
    159 H          13.4667   46.7477   65.8278 H        26        0    0.0000
    160 H          14.3984   46.0012   64.5343 H        26        0    0.0000
    161 H          12.3976   46.1566   63.0034 H        26        0    0.0000
    162 H          11.4658   46.9030   64.2969 H        26        0    0.0000
    163 H          12.8531   47.7692   63.5986 H        26        0    0.0000
    164 H          19.2798   35.8687  121.7450 H         0        0    0.0000
@<TRIPOS>BOND
     1     1     2      1
     2     1     3      1
     3     1     4      1
     4     1   164      H
     5     2     5      1
     6     2     6      1
     7     2     7      1
     8     7     8      1
     9     7     9      1
    10     7    10      1
    11     8    11      1
    12     8    12      1
    13     8    13      1
    14    13    14      1
    15    13    15      1
    16    13    16      1
    17    14    17      1
    18    14    18      1
    19    14    19      1
    20    19    20      1
    21    19    21      1
    22    19    22      1
    23    20    23      1
    24    20    24      1
    25    20    25      1
    26    25    26      1
    27    25    27      1
    28    25    28      1
    29    26    29      1
    30    26    30      1
    31    26    31      1
    32    31    32      1
    33    31    33      1
    34    31    34      1
    35    32    35      1
    36    32    36      1
    37    32    37      1
    38    37    38      1
    39    37    39      1
    40    37    40      1
    41    38    41      1
    42    38    42      1
    43    38    43      1
    44    43    44      1
    45    43    45      1
    46    43    46      1
    47    44    47      1
    48    44    48      1
    49    44    49      1
    50    49    50      1
    51    49    51      1
    52    49    52      1
    53    50    53      1
    54    50    54      1
    55    50    55      1
    56    55    56      1
    57    55    57      1
    58    55    58      1
    59    56    59      1
    60    56    60      1
    61    56    61      1
    62    61    62      1
    63    61    63      1
    64    61    64      1
    65    62    65      1
    66    62    66      1
    67    62    67      1
    68    67    68      1
    69    67    69      1
    70    67    70      1
    71    68    71      1
    72    68    72      1
    73    68    73      1
    74    73    74      1
    75    73    75      1
    76    73    76      1
    77    74    77      1
    78    74    78      1
    79    74    79      1
    80    79    80      1
    81    79    81      1
    82    79    82      1
    83    80    83      1
    84    80    84      1
    85    80    85      1
    86    85    86      1
    87    85    87      1
    88    85    88      1
    89    86    89      1
    90    86    90      1
    91    86    91      1
    92    91    92      1
    93    91    93      1
    94    91    94      1
    95    92    95      1
    96    92    96      1
    97    92    97      1
    98    97    98      1
    99    97    99      1
   100    97   100      1
   101    98   101      1
   102    98   102      1
   103    98   103      1
   104   103   104      1
   105   103   105      1
   106   103   106      1
   107   104   107      1
   108   104   108      1
   109   104   109      1
   110   109   110      1
   111   109   111      1
   112   109   112      1
   113   110   113      1
   114   110   114      1
   115   110   115      1
   116   115   116      1
   117   115   117      1
   118   115   118      1
   119   116   119      1
   120   116   120      1
   121   116   121      1
   122   121   122      1
   123   121   123      1
   124   121   124      1
   125   122   125      1
   126   122   126      1
   127   122   127      1
   128   127   128      1
   129   127   129      1
   130   127   130      1
   131   128   131      1
   132   128   132      1
   133   128   133      1
   134   133   134      1
   135   133   135      1
   136   133   136      1
   137   134   137      1
   138   134   138      1
   139   134   139      1
   140   139   140      1
   141   139   141      1
   142   139   142      1
   143   140   143      1
   144   140   144      1
   145   140   145      1
   146   145   146      1
   147   145   147      1
   148   145   148      1
   149   146   149      1
   150   146   150      1
   151   146   151      1
   152   151   152      1
   153   151   153      1
   154   151   154      1
   155   152   155      1
   156   152   156      1
   157   152   157      1
   158   157   158      1
   159   157   159      1
   160   157   160      1
   161   158   161      1
   162   158   162      1
   163   158   163      H
