###
### Created by PolyChef-cpp17 on Thu Feb 27 19:40:28 2025
###

@<TRIPOS>MOLECULE
NO_INFO
290 289 1 0 0
SMALL
USER_CHARGES


@<TRIPOS>ATOM
      1 C         139.2798   70.5087  -39.3449 C.3       0        0    0.0000
      2 C         137.8706   70.3482  -38.7641 C.3       0        0    0.0000
      3 H         139.9271   69.6966  -38.9913 H         0        0    0.0000
      4 H         139.7280   71.4455  -38.9913 H         0        0    0.0000
      5 H         137.3721   71.3240  -38.7112 H         0        0    0.0000
      6 H         137.2611   69.7185  -39.4241 H         0        0    0.0000
      7 C         137.8873   69.7111  -37.3319 C.3       1        0    0.0000
      8 C         139.1650   70.0547  -36.5582 C.3       1        0    0.0000
      9 H         137.0070   70.0613  -36.7787 H         1        0    0.0000
     10 H         137.7868   68.6229  -37.4277 H         1        0    0.0000
     11 H         140.0452   69.8816  -37.1897 H         1        0    0.0000
     12 H         139.1706   71.1198  -36.2952 H         1        0    0.0000
     13 C         139.3105   69.2095  -35.2460 C.3       2        0    0.0000
     14 C         140.2021   69.8985  -34.2071 C.3       2        0    0.0000
     15 H         138.3122   69.0325  -34.8269 H         2        0    0.0000
     16 H         139.7231   68.2260  -35.5029 H         2        0    0.0000
     17 H         141.2578   69.7845  -34.4826 H         2        0    0.0000
     18 H         139.9957   70.9758  -34.1895 H         2        0    0.0000
     19 C         139.9907   69.3199  -32.7656 C.3       3        0    0.0000
     20 C         140.6064   70.2149  -31.6844 C.3       3        0    0.0000
     21 H         138.9149   69.2000  -32.5869 H         3        0    0.0000
     22 H         140.4315   68.3164  -32.7191 H         3        0    0.0000
     23 H         141.6954   70.2607  -31.8093 H         3        0    0.0000
     24 H         140.2339   71.2415  -31.7888 H         3        0    0.0000
     25 C         140.2848   69.7054  -30.2372 C.3       4        0    0.0000
     26 C         140.8688   70.6211  -29.1558 C.3       4        0    0.0000
     27 H         139.1962   69.6335  -30.1215 H         4        0    0.0000
     28 H         140.6815   68.6889  -30.1239 H         4        0    0.0000
     29 H         141.9583   70.6868  -29.2667 H         4        0    0.0000
     30 H         140.4782   71.6394  -29.2740 H         4        0    0.0000
     31 C         140.5376   70.1177  -27.7086 C.3       5        0    0.0000
     32 C         141.1405   71.0211  -26.6272 C.3       5        0    0.0000
     33 H         139.4479   70.0676  -27.5924 H         5        0    0.0000
     34 H         140.9138   69.0934  -27.5958 H         5        0    0.0000
     35 H         142.2300   71.0729  -26.7448 H         5        0    0.0000
     36 H         140.7626   72.0450  -26.7387 H         5        0    0.0000
     37 C         140.8120   70.5160  -25.1800 C.3       6        0    0.0000
     38 C         141.4072   71.4244  -24.0986 C.3       6        0    0.0000
     39 H         139.7225   70.4578  -25.0646 H         6        0    0.0000
     40 H         141.1957   69.4945  -25.0664 H         6        0    0.0000
     41 H         142.4970   71.4798  -24.2119 H         6        0    0.0000
     42 H         141.0261   72.4466  -24.2143 H         6        0    0.0000
     43 C         141.0746   70.9219  -22.6514 C.3       7        0    0.0000
     44 C         142.1002   71.4034  -21.6193 C.3       7        0    0.0000
     45 H         140.0719   71.2725  -22.3772 H         7        0    0.0000
     46 H         141.0341   69.8256  -22.6583 H         7        0    0.0000
     47 H         143.1129   71.1277  -21.9385 H         7        0    0.0000
     48 H         142.0788   72.4981  -21.5502 H         7        0    0.0000
     49 C         141.8377   70.8020  -20.1957 C.3       8        0    0.0000
     50 C         141.7789   71.8827  -19.1104 C.3       8        0    0.0000
     51 H         140.8962   70.2393  -20.2176 H         8        0    0.0000
     52 H         142.6309   70.0800  -19.9650 H         8        0    0.0000
     53 H         142.7939   72.1966  -18.8368 H         8        0    0.0000
     54 H         141.2663   72.7735  -19.4940 H         8        0    0.0000
     55 C         141.0376   71.3893  -17.8203 C.3       9        0    0.0000
     56 C         141.9250   71.4709  -16.5733 C.3       9        0    0.0000
     57 H         140.1335   71.9944  -17.6787 H         9        0    0.0000
     58 H         140.7038   70.3561  -17.9775 H         9        0    0.0000
     59 H         142.9481   71.1601  -16.8188 H         9        0    0.0000
     60 H         141.9866   72.5086  -16.2226 H         9        0    0.0000
     61 C         141.3910   70.5733  -15.4043 C.3      10        0    0.0000
     62 C         141.6621   71.1903  -14.0278 C.3      10        0    0.0000
     63 H         140.3136   70.4181  -15.5414 H        10        0    0.0000
     64 H         141.8628   69.5853  -15.4732 H        10        0    0.0000
     65 H         142.7399   71.1955  -13.8235 H        10        0    0.0000
     66 H         141.3337   72.2370  -14.0135 H        10        0    0.0000
     67 C         140.9332   70.4163  -12.8758 C.3      11        0    0.0000
     68 C         141.3681   70.8973  -11.4871 C.3      11        0    0.0000
     69 H         139.8500   70.5422  -12.9953 H        11        0    0.0000
     70 H         141.1397   69.3443  -12.9843 H        11        0    0.0000
     71 H         142.4566   70.8097  -11.3824 H        11        0    0.0000
     72 H         141.1242   71.9598  -11.3635 H        11        0    0.0000
     73 C         140.6827   70.0843  -10.3352 C.3      12        0    0.0000
     74 C         141.1061   70.5752   -8.9463 C.3      12        0    0.0000
     75 H         139.5941   70.1629  -10.4462 H        12        0    0.0000
     76 H         140.9355   69.0233  -10.4524 H        12        0    0.0000
     77 H         142.1942   70.4918   -8.8335 H        12        0    0.0000
     78 H         140.8579   71.6375   -8.8310 H        12        0    0.0000
     79 C         140.4153   69.7669   -7.7944 C.3      13        0    0.0000
     80 C         140.8469   70.2507   -6.4057 C.3      13        0    0.0000
     81 H         139.3273   69.8568   -7.9027 H        13        0    0.0000
     82 H         140.6570   68.7036   -7.9143 H        13        0    0.0000
     83 H         141.9359   70.1687   -6.3004 H        13        0    0.0000
     84 H         140.5976   71.3119   -6.2826 H        13        0    0.0000
     85 C         140.1652   69.4346   -5.2538 C.3      14        0    0.0000
     86 C         140.6382   69.8820   -3.8664 C.3      14        0    0.0000
     87 H         139.0771   69.5492   -5.3354 H        14        0    0.0000
     88 H         140.3815   68.3690   -5.3995 H        14        0    0.0000
     89 H         141.7306   69.8062   -3.7988 H        14        0    0.0000
     90 H         140.3851   70.9371   -3.7047 H        14        0    0.0000
     91 C         140.0004   69.0276   -2.7171 C.3      15        0    0.0000
     92 C         140.4322   69.5087   -1.3275 C.3      15        0    0.0000
     93 H         138.9080   69.0721   -2.8080 H        15        0    0.0000
     94 H         140.2857   67.9775   -2.8571 H        15        0    0.0000
     95 H         141.4660   69.2009   -1.1273 H        15        0    0.0000
     96 H         140.4164   70.6049   -1.2872 H        15        0    0.0000
     97 C         139.5090   68.9480   -0.1913 C.3      16        0    0.0000
     98 C         139.8527   69.5384    1.1807 C.3      16        0    0.0000
     99 H         138.4643   69.1671   -0.4441 H        16        0    0.0000
    100 H         139.6044   67.8554   -0.1652 H        16        0    0.0000
    101 H         140.8617   69.2298    1.4810 H        16        0    0.0000
    102 H         139.8612   70.6341    1.1272 H        16        0    0.0000
    103 C         138.8375   69.0945    2.2897 C.3      17        0    0.0000
    104 C         139.1415   69.7385    3.6468 C.3      17        0    0.0000
    105 H         137.8230   69.3590    1.9667 H        17        0    0.0000
    106 H         138.8653   68.0014    2.3774 H        17        0    0.0000
    107 H         140.1417   69.4434    3.9876 H        17        0    0.0000
    108 H         139.1511   70.8314    3.5509 H        17        0    0.0000
    109 C         138.0952   69.3367    4.7428 C.3      18        0    0.0000
    110 C         138.2851   70.1245    6.0437 C.3      18        0    0.0000
    111 H         137.0860   69.5030    4.3462 H        18        0    0.0000
    112 H         138.1835   68.2608    4.9384 H        18        0    0.0000
    113 H         139.2685   69.9039    6.4770 H        18        0    0.0000
    114 H         138.2664   71.2018    5.8372 H        18        0    0.0000
    115 C         137.1797   69.7942    7.1050 C.3      19        0    0.0000
    116 C         136.8482   70.9989    7.9927 C.3      19        0    0.0000
    117 H         136.2778   69.4530    6.5818 H        19        0    0.0000
    118 H         137.5221   68.9548    7.7227 H        19        0    0.0000
    119 H         137.6844   71.2073    8.6716 H        19        0    0.0000
    120 H         136.7130   71.8954    7.3750 H        19        0    0.0000
    121 C         135.5513   70.7711    8.8434 C.3      20        0    0.0000
    122 C         134.6497   72.0102    8.8711 C.3      20        0    0.0000
    123 H         135.0027   69.9159    8.4296 H        20        0    0.0000
    124 H         135.8422   70.4947    9.8644 H        20        0    0.0000
    125 H         134.9872   72.7036    9.6514 H        20        0    0.0000
    126 H         134.7217   72.5492    7.9182 H        20        0    0.0000
    127 C         133.1477   71.6463    9.1336 C.3      21        0    0.0000
    128 C         132.6451   72.1877   10.4765 C.3      21        0    0.0000
    129 H         132.5383   72.0476    8.3144 H        21        0    0.0000
    130 H         133.0377   70.5552    9.1030 H        21        0    0.0000
    131 H         133.4641   72.2031   11.2062 H        21        0    0.0000
    132 H         132.3065   73.2248   10.3610 H        21        0    0.0000
    133 C         131.4664   71.3332   11.0579 C.3      22        0    0.0000
    134 C         130.1030   71.9971   10.8360 C.3      22        0    0.0000
    135 H         131.4831   70.3419   10.5881 H        22        0    0.0000
    136 H         131.6385   71.1766   12.1300 H        22        0    0.0000
    137 H         129.8028   72.5495   11.7350 H        22        0    0.0000
    138 H         130.1698   72.7308   10.0230 H        22        0    0.0000
    139 C         128.9849   70.9555   10.4860 C.3      23        0    0.0000
    140 C         127.8637   71.5691    9.6401 C.3      23        0    0.0000
    141 H         129.4412   70.1130    9.9517 H        23        0    0.0000
    142 H         128.5737   70.5512   11.4193 H        23        0    0.0000
    143 H         127.3641   72.3688   10.2007 H        23        0    0.0000
    144 H         128.2832   72.0315    8.7380 H        23        0    0.0000
    145 C         126.7931   70.5069    9.2123 C.3      24        0    0.0000
    146 C         125.6264   71.1357    8.4426 C.3      24        0    0.0000
    147 H         127.2810   69.7413    8.5963 H        24        0    0.0000
    148 H         126.4209   69.9986   10.1104 H        24        0    0.0000
    149 H         125.1151   71.8745    9.0722 H        24        0    0.0000
    150 H         126.0023   71.6760    7.5650 H        24        0    0.0000
    151 C         124.5824   70.0666    7.9688 C.3      25        0    0.0000
    152 C         123.7135   70.5754    6.8133 C.3      25        0    0.0000
    153 H         125.1187   69.1591    7.6648 H        25        0    0.0000
    154 H         123.9498   69.7882    8.8208 H        25        0    0.0000
    155 H         123.0298   71.3550    7.1717 H        25        0    0.0000
    156 H         124.3440   71.0387    6.0442 H        25        0    0.0000
    157 C         122.8717   69.4293    6.1535 C.3      26        0    0.0000
    158 C         122.2147   69.8726    4.8417 C.3      26        0    0.0000
    159 H         123.5268   68.5679    5.9739 H        26        0    0.0000
    160 H         122.1050   69.0991    6.8654 H        26        0    0.0000
    161 H         121.4064   70.5851    5.0478 H        26        0    0.0000
    162 H         122.9451   70.3978    4.2138 H        26        0    0.0000
    163 C         121.6291   68.6643    4.0326 C.3      27        0    0.0000
    164 C         121.0335   69.0990    2.6890 C.3      27        0    0.0000
    165 H         122.4261   67.9281    3.8702 H        27        0    0.0000
    166 H         120.8624   68.1694    4.6415 H        27        0    0.0000
    167 H         119.9993   69.4376    2.8279 H        27        0    0.0000
    168 H         121.5934   69.9531    2.2881 H        27        0    0.0000
    169 C         121.0489   67.9429    1.6304 C.3      28        0    0.0000
    170 C         120.4798   68.3860    0.2781 C.3      28        0    0.0000
    171 H         122.0803   67.5901    1.5071 H        28        0    0.0000
    172 H         120.4712   67.0967    2.0226 H        28        0    0.0000
    173 H         120.5789   67.5762   -0.4553 H        28        0    0.0000
    174 H         119.4072   68.5965    0.3721 H        28        0    0.0000
    175 C         121.1983   69.6630   -0.2792 C.3      29        0    0.0000
    176 C         120.7129   70.0360   -1.6843 C.3      29        0    0.0000
    177 H         121.0245   70.4967    0.4125 H        29        0    0.0000
    178 H         122.2805   69.4834   -0.2903 H        29        0    0.0000
    179 H         119.6690   70.3711   -1.6451 H        29        0    0.0000
    180 H         121.2994   70.8773   -2.0739 H        29        0    0.0000
    181 C         120.8213   68.8368   -2.6881 C.3      30        0    0.0000
    182 C         120.1873   69.1570   -4.0462 C.3      30        0    0.0000
    183 H         121.8797   68.5792   -2.8184 H        30        0    0.0000
    184 H         120.3358   67.9589   -2.2439 H        30        0    0.0000
    185 H         119.1648   68.7616   -4.0866 H        30        0    0.0000
    186 H         120.1105   70.2433   -4.1787 H        30        0    0.0000
    187 C         121.0078   68.5591   -5.2407 C.3      31        0    0.0000
    188 C         120.4263   68.9570   -6.6017 C.3      31        0    0.0000
    189 H         122.0474   68.9004   -5.1615 H        31        0    0.0000
    190 H         121.0268   67.4664   -5.1447 H        31        0    0.0000
    191 H         119.4135   68.5498   -6.7116 H        31        0    0.0000
    192 H         120.3358   70.0484   -6.6676 H        31        0    0.0000
    193 C         121.3071   68.4501   -7.7953 C.3      32        0    0.0000
    194 C         120.7183   68.8363   -9.1567 C.3      32        0    0.0000
    195 H         122.3171   68.8653   -7.6908 H        32        0    0.0000
    196 H         121.4057   67.3598   -7.7238 H        32        0    0.0000
    197 H         119.6615   68.5461   -9.2055 H        32        0    0.0000
    198 H         120.7522   69.9252   -9.2859 H        32        0    0.0000
    199 C         121.4830   68.1621  -10.3475 C.3      33        0    0.0000
    200 C         120.9067   68.5638  -11.7097 C.3      33        0    0.0000
    201 H         122.5426   68.4408  -10.2904 H        33        0    0.0000
    202 H         121.4368   67.0728  -10.2259 H        33        0    0.0000
    203 H         121.5517   68.1920  -12.5155 H        33        0    0.0000
    204 H         119.9232   68.0995  -11.8537 H        33        0    0.0000
    205 C         120.7585   70.1174  -11.8573 C.3      34        0    0.0000
    206 C         120.1947   70.5198  -13.2245 C.3      34        0    0.0000
    207 H         120.1056   70.4879  -11.0573 H        34        0    0.0000
    208 H         121.7401   70.5825  -11.7035 H        34        0    0.0000
    209 H         119.1327   70.2516  -13.2872 H        34        0    0.0000
    210 H         120.2526   71.6082  -13.3497 H        34        0    0.0000
    211 C         120.9599   69.8336  -14.4080 C.3      35        0    0.0000
    212 C         120.1546   69.8574  -15.7119 C.3      35        0    0.0000
    213 H         121.9211   70.3429  -14.5502 H        35        0    0.0000
    214 H         121.1904   68.7984  -14.1271 H        35        0    0.0000
    215 H         119.1523   69.4448  -15.5425 H        35        0    0.0000
    216 H         120.0165   70.8919  -16.0498 H        35        0    0.0000
    217 C         120.8505   69.0410  -16.8550 C.3      36        0    0.0000
    218 C         120.1486   69.2188  -18.2058 C.3      36        0    0.0000
    219 H         121.8975   69.3599  -16.9303 H        36        0    0.0000
    220 H         120.8636   67.9805  -16.5745 H        36        0    0.0000
    221 H         119.3197   68.5057  -18.2957 H        36        0    0.0000
    222 H         119.7097   70.2220  -18.2726 H        36        0    0.0000
    223 C         121.1254   69.0131  -19.4145 C.3      37        0    0.0000
    224 C         120.4216   69.1828  -20.7655 C.3      37        0    0.0000
    225 H         121.9511   69.7302  -19.3279 H        37        0    0.0000
    226 H         121.5688   68.0121  -19.3445 H        37        0    0.0000
    227 H         119.5798   68.4834  -20.8415 H        37        0    0.0000
    228 H         120.0005   70.1926  -20.8461 H        37        0    0.0000
    229 C         121.3900   68.9411  -21.9743 C.3      38        0    0.0000
    230 C         120.6863   69.1111  -23.3252 C.3      38        0    0.0000
    231 H         122.2319   69.6403  -21.8982 H        38        0    0.0000
    232 H         121.8109   67.9312  -21.8938 H        38        0    0.0000
    233 H         119.8511   68.4043  -23.4058 H        38        0    0.0000
    234 H         120.2559   70.1173  -23.4013 H        38        0    0.0000
    235 C         121.6583   68.8845  -24.5341 C.3      39        0    0.0000
    236 C         120.9543   69.0532  -25.8850 C.3      39        0    0.0000
    237 H         122.4930   69.5919  -24.4540 H        39        0    0.0000
    238 H         122.0893   67.8786  -24.4575 H        39        0    0.0000
    239 H         120.1052   68.3621  -25.9556 H        39        0    0.0000
    240 H         120.5435   70.0668  -25.9711 H        39        0    0.0000
    241 C         121.9184   68.7943  -27.0937 C.3      40        0    0.0000
    242 C         121.2154   68.9669  -28.4447 C.3      40        0    0.0000
    243 H         122.7689   69.4835  -27.0216 H        40        0    0.0000
    244 H         122.3269   67.7797  -27.0092 H        40        0    0.0000
    245 H         121.9509   68.9361  -29.2581 H        40        0    0.0000
    246 H         120.5209   68.1351  -28.6163 H        40        0    0.0000
    247 C         120.4205   70.3152  -28.5329 C.3      41        0    0.0000
    248 C         119.6878   70.4710  -29.8700 C.3      41        0    0.0000
    249 H         119.7035   70.3578  -27.7038 H        41        0    0.0000
    250 H         121.1198   71.1480  -28.3879 H        41        0    0.0000
    251 H         118.6064   70.5440  -29.7000 H        41        0    0.0000
    252 H         119.9933   71.4038  -30.3599 H        41        0    0.0000
    253 C         119.9666   69.2742  -30.8433 C.3      42        0    0.0000
    254 C         119.5885   69.6032  -32.2917 C.3      42        0    0.0000
    255 H         121.0296   69.0096  -30.7829 H        42        0    0.0000
    256 H         119.4038   68.3984  -30.4973 H        42        0    0.0000
    257 H         118.5438   69.3261  -32.4800 H        42        0    0.0000
    258 H         119.6636   70.6841  -32.4639 H        42        0    0.0000
    259 C         120.5024   68.8619  -33.3274 C.3      43        0    0.0000
    260 C         120.1176   69.1827  -34.7758 C.3      43        0    0.0000
    261 H         121.5464   69.1449  -33.1440 H        43        0    0.0000
    262 H         120.4332   67.7814  -33.1503 H        43        0    0.0000
    263 H         119.0684   68.9162  -34.9541 H        43        0    0.0000
    264 H         120.2040   70.2611  -34.9580 H        43        0    0.0000
    265 C         121.0153   68.4218  -35.8115 C.3      44        0    0.0000
    266 C         120.6310   68.7433  -37.2600 C.3      44        0    0.0000
    267 H         122.0645   68.6878  -35.6328 H        44        0    0.0000
    268 H         120.9283   67.3434  -35.6298 H        44        0    0.0000
    269 H         121.3733   68.3211  -37.9487 H        44        0    0.0000
    270 H         119.6700   68.2753  -37.5070 H        44        0    0.0000
    271 C         120.5228   70.2859  -37.5175 C.3      45        0    0.0000
    272 C         119.9750   70.6048  -38.9129 C.3      45        0    0.0000
    273 H         119.8762   70.7281  -36.7494 H        45        0    0.0000
    274 H         121.5153   70.7359  -37.3911 H        45        0    0.0000
    275 H         118.9630   71.0210  -38.8337 H        45        0    0.0000
    276 H         120.5943   71.3720  -39.3939 H        45        0    0.0000
    277 C         119.9300   69.3393  -39.8370 C.3      46        0    0.0000
    278 C         119.4450   69.6707  -41.2526 C.3      46        0    0.0000
    279 H         120.9322   68.8949  -39.8771 H        46        0    0.0000
    280 H         119.2715   68.5906  -39.3794 H        46        0    0.0000
    281 H         118.3559   69.5537  -41.3142 H        46        0    0.0000
    282 H         119.6630   70.7196  -41.4890 H        46        0    0.0000
    283 C         120.1133   68.7585  -42.3383 C.3      47        0    0.0000
    284 C         119.0812   68.1091  -43.2668 C.3      47        0    0.0000
    285 H         120.8176   69.3630  -42.9232 H        47        0    0.0000
    286 H         120.7054   67.9847  -41.8343 H        47        0    0.0000
    287 H         118.3768   67.5046  -42.6819 H        47        0    0.0000
    288 H         118.4891   68.8830  -43.7708 H        47        0    0.0000
    289 H         119.5459   67.4749  -44.0217 H        47        0    0.0000
    290 H         139.2798   70.5087  -40.4349 H         0        0    0.0000
@<TRIPOS>BOND
     1     1     2      1
     2     1     3      1
     3     1     4      1
     4     1   290      H
     5     2     5      1
     6     2     6      1
     7     2     7      1
     8     7     8      1
     9     7     9      1
    10     7    10      1
    11     8    11      1
    12     8    12      1
    13     8    13      1
    14    13    14      1
    15    13    15      1
    16    13    16      1
    17    14    17      1
    18    14    18      1
    19    14    19      1
    20    19    20      1
    21    19    21      1
    22    19    22      1
    23    20    23      1
    24    20    24      1
    25    20    25      1
    26    25    26      1
    27    25    27      1
    28    25    28      1
    29    26    29      1
    30    26    30      1
    31    26    31      1
    32    31    32      1
    33    31    33      1
    34    31    34      1
    35    32    35      1
    36    32    36      1
    37    32    37      1
    38    37    38      1
    39    37    39      1
    40    37    40      1
    41    38    41      1
    42    38    42      1
    43    38    43      1
    44    43    44      1
    45    43    45      1
    46    43    46      1
    47    44    47      1
    48    44    48      1
    49    44    49      1
    50    49    50      1
    51    49    51      1
    52    49    52      1
    53    50    53      1
    54    50    54      1
    55    50    55      1
    56    55    56      1
    57    55    57      1
    58    55    58      1
    59    56    59      1
    60    56    60      1
    61    56    61      1
    62    61    62      1
    63    61    63      1
    64    61    64      1
    65    62    65      1
    66    62    66      1
    67    62    67      1
    68    67    68      1
    69    67    69      1
    70    67    70      1
    71    68    71      1
    72    68    72      1
    73    68    73      1
    74    73    74      1
    75    73    75      1
    76    73    76      1
    77    74    77      1
    78    74    78      1
    79    74    79      1
    80    79    80      1
    81    79    81      1
    82    79    82      1
    83    80    83      1
    84    80    84      1
    85    80    85      1
    86    85    86      1
    87    85    87      1
    88    85    88      1
    89    86    89      1
    90    86    90      1
    91    86    91      1
    92    91    92      1
    93    91    93      1
    94    91    94      1
    95    92    95      1
    96    92    96      1
    97    92    97      1
    98    97    98      1
    99    97    99      1
   100    97   100      1
   101    98   101      1
   102    98   102      1
   103    98   103      1
   104   103   104      1
   105   103   105      1
   106   103   106      1
   107   104   107      1
   108   104   108      1
   109   104   109      1
   110   109   110      1
   111   109   111      1
   112   109   112      1
   113   110   113      1
   114   110   114      1
   115   110   115      1
   116   115   116      1
   117   115   117      1
   118   115   118      1
   119   116   119      1
   120   116   120      1
   121   116   121      1
   122   121   122      1
   123   121   123      1
   124   121   124      1
   125   122   125      1
   126   122   126      1
   127   122   127      1
   128   127   128      1
   129   127   129      1
   130   127   130      1
   131   128   131      1
   132   128   132      1
   133   128   133      1
   134   133   134      1
   135   133   135      1
   136   133   136      1
   137   134   137      1
   138   134   138      1
   139   134   139      1
   140   139   140      1
   141   139   141      1
   142   139   142      1
   143   140   143      1
   144   140   144      1
   145   140   145      1
   146   145   146      1
   147   145   147      1
   148   145   148      1
   149   146   149      1
   150   146   150      1
   151   146   151      1
   152   151   152      1
   153   151   153      1
   154   151   154      1
   155   152   155      1
   156   152   156      1
   157   152   157      1
   158   157   158      1
   159   157   159      1
   160   157   160      1
   161   158   161      1
   162   158   162      1
   163   158   163      1
   164   163   164      1
   165   163   165      1
   166   163   166      1
   167   164   167      1
   168   164   168      1
   169   164   169      1
   170   169   170      1
   171   169   171      1
   172   169   172      1
   173   170   173      1
   174   170   174      1
   175   170   175      1
   176   175   176      1
   177   175   177      1
   178   175   178      1
   179   176   179      1
   180   176   180      1
   181   176   181      1
   182   181   182      1
   183   181   183      1
   184   181   184      1
   185   182   185      1
   186   182   186      1
   187   182   187      1
   188   187   188      1
   189   187   189      1
   190   187   190      1
   191   188   191      1
   192   188   192      1
   193   188   193      1
   194   193   194      1
   195   193   195      1
   196   193   196      1
   197   194   197      1
   198   194   198      1
   199   194   199      1
   200   199   200      1
   201   199   201      1
   202   199   202      1
   203   200   203      1
   204   200   204      1
   205   200   205      1
   206   205   206      1
   207   205   207      1
   208   205   208      1
   209   206   209      1
   210   206   210      1
   211   206   211      1
   212   211   212      1
   213   211   213      1
   214   211   214      1
   215   212   215      1
   216   212   216      1
   217   212   217      1
   218   217   218      1
   219   217   219      1
   220   217   220      1
   221   218   221      1
   222   218   222      1
   223   218   223      1
   224   223   224      1
   225   223   225      1
   226   223   226      1
   227   224   227      1
   228   224   228      1
   229   224   229      1
   230   229   230      1
   231   229   231      1
   232   229   232      1
   233   230   233      1
   234   230   234      1
   235   230   235      1
   236   235   236      1
   237   235   237      1
   238   235   238      1
   239   236   239      1
   240   236   240      1
   241   236   241      1
   242   241   242      1
   243   241   243      1
   244   241   244      1
   245   242   245      1
   246   242   246      1
   247   242   247      1
   248   247   248      1
   249   247   249      1
   250   247   250      1
   251   248   251      1
   252   248   252      1
   253   248   253      1
   254   253   254      1
   255   253   255      1
   256   253   256      1
   257   254   257      1
   258   254   258      1
   259   254   259      1
   260   259   260      1
   261   259   261      1
   262   259   262      1
   263   260   263      1
   264   260   264      1
   265   260   265      1
   266   265   266      1
   267   265   267      1
   268   265   268      1
   269   266   269      1
   270   266   270      1
   271   266   271      1
   272   271   272      1
   273   271   273      1
   274   271   274      1
   275   272   275      1
   276   272   276      1
   277   272   277      1
   278   277   278      1
   279   277   279      1
   280   277   280      1
   281   278   281      1
   282   278   282      1
   283   278   283      1
   284   283   284      1
   285   283   285      1
   286   283   286      1
   287   284   287      1
   288   284   288      1
   289   284   289      H
