###
### Created by PolyChef-cpp17 on Thu Feb 27 19:40:29 2025
###

@<TRIPOS>MOLECULE
NO_INFO
290 289 1 0 0
SMALL
USER_CHARGES


@<TRIPOS>ATOM
      1 C         189.2798   53.1887  120.6551 C.3       0        0    0.0000
      2 C         188.4513   52.0375  120.0742 C.3       0        0    0.0000
      3 H         188.8875   54.1502  120.3015 H         0        0    0.0000
      4 H         190.3162   53.1221  120.3014 H         0        0    0.0000
      5 H         188.4068   51.2074  120.7902 H         0        0    0.0000
      6 H         187.4177   52.3649  119.9069 H         0        0    0.0000
      7 C         189.0384   51.5067  118.7211 C.3       1        0    0.0000
      8 C         189.6351   52.6303  117.8663 C.3       1        0    0.0000
      9 H         189.8049   50.7529  118.9397 H         1        0    0.0000
     10 H         188.2422   50.9947  118.1667 H         1        0    0.0000
     11 H         188.9421   53.4798  117.8248 H         1        0    0.0000
     12 H         190.5604   53.0007  118.3246 H         1        0    0.0000
     13 C         189.9482   52.1616  116.4035 C.3       2        0    0.0000
     14 C         189.8783   53.3149  115.3965 C.3       2        0    0.0000
     15 H         190.9457   51.7054  116.3842 H         2        0    0.0000
     16 H         189.2364   51.3748  116.1243 H         2        0    0.0000
     17 H         188.9533   53.8865  115.5428 H         2        0    0.0000
     18 H         190.7089   54.0116  115.5643 H         2        0    0.0000
     19 C         189.9322   52.8122  113.9127 C.3       3        0    0.0000
     20 C         189.8194   53.9618  112.9054 C.3       3        0    0.0000
     21 H         190.8717   52.2672  113.7579 H         3        0    0.0000
     22 H         189.1202   52.0918  113.7537 H         3        0    0.0000
     23 H         188.8841   54.5122  113.0659 H         3        0    0.0000
     24 H         190.6365   54.6777  113.0586 H         3        0    0.0000
     25 C         189.8608   53.4578  111.4216 C.3       4        0    0.0000
     26 C         189.8214   54.6126  110.4146 C.3       4        0    0.0000
     27 H         190.7705   52.8624  111.2756 H         4        0    0.0000
     28 H         189.0123   52.7831  111.2535 H         4        0    0.0000
     29 H         188.9078   55.2035  110.5554 H         4        0    0.0000
     30 H         190.6655   55.2916  110.5877 H         4        0    0.0000
     31 C         189.8739   54.1092  108.9309 C.3       5        0    0.0000
     32 C         188.7889   54.7527  108.0605 C.3       5        0    0.0000
     33 H         190.8664   54.3282  108.5181 H         5        0    0.0000
     34 H         189.7636   53.0177  108.9238 H         5        0    0.0000
     35 H         187.8335   54.7668  108.5995 H         5        0    0.0000
     36 H         189.0469   55.7978  107.8492 H         5        0    0.0000
     37 C         188.5913   53.9964  106.7016 C.3       6        0    0.0000
     38 C         188.8764   54.8925  105.4913 C.3       6        0    0.0000
     39 H         189.2517   53.1206  106.6851 H         6        0    0.0000
     40 H         187.5631   53.6167  106.6545 H         6        0    0.0000
     41 H         187.9587   55.4060  105.1789 H         6        0    0.0000
     42 H         189.5975   55.6735  105.7631 H         6        0    0.0000
     43 C         189.4426   54.0838  104.2736 C.3       7        0    0.0000
     44 C         188.7901   54.4953  102.9492 C.3       7        0    0.0000
     45 H         190.5277   54.2362  104.2216 H         7        0    0.0000
     46 H         189.2831   53.0136  104.4550 H         7        0    0.0000
     47 H         187.6997   54.5350  103.0634 H         7        0    0.0000
     48 H         189.1143   55.5049  102.6678 H         7        0    0.0000
     49 C         189.1403   53.5086  101.7825 C.3       8        0    0.0000
     50 C         188.9424   54.1466  100.4031 C.3       8        0    0.0000
     51 H         190.1801   53.1786  101.8986 H         8        0    0.0000
     52 H         188.5133   52.6133  101.8764 H         8        0    0.0000
     53 H         187.8838   54.3908  100.2500 H         8        0    0.0000
     54 H         189.4956   55.0920  100.3430 H         8        0    0.0000
     55 C         189.4177   53.2082   99.2408 C.3       9        0    0.0000
     56 C         189.1284   53.8036   97.8584 C.3       9        0    0.0000
     57 H         190.4931   53.0231   99.3531 H         9        0    0.0000
     58 H         188.9184   52.2368   99.3439 H         9        0    0.0000
     59 H         188.0560   54.0100   97.7546 H         9        0    0.0000
     60 H         189.6464   54.7642   97.7467 H         9        0    0.0000
     61 C         189.5745   52.8509   96.6961 C.3      10        0    0.0000
     62 C         189.2973   53.4520   95.3137 C.3      10        0    0.0000
     63 H         190.6449   52.6369   96.8054 H        10        0    0.0000
     64 H         189.0493   51.8936   96.8023 H        10        0    0.0000
     65 H         188.2267   53.6649   95.2039 H        10        0    0.0000
     66 H         189.8214   54.4099   95.2080 H        10        0    0.0000
     67 C         189.7449   52.5001   94.1514 C.3      11        0    0.0000
     68 C         189.4655   53.1001   92.7690 C.3      11        0    0.0000
     69 H         190.8158   52.2885   94.2602 H        11        0    0.0000
     70 H         189.2220   51.5416   94.2581 H        11        0    0.0000
     71 H         188.3944   53.3102   92.6596 H        11        0    0.0000
     72 H         189.9871   54.0594   92.6629 H        11        0    0.0000
     73 C         189.9153   52.1492   91.6067 C.3      12        0    0.0000
     74 C         189.6298   52.7464   90.2243 C.3      12        0    0.0000
     75 H         190.9875   51.9431   91.7133 H        12        0    0.0000
     76 H         189.3974   51.1882   91.7156 H        12        0    0.0000
     77 H         188.5578   52.9539   90.1183 H        12        0    0.0000
     78 H         190.1489   53.7066   90.1149 H        12        0    0.0000
     79 C         190.0776   51.7945   89.0620 C.3      13        0    0.0000
     80 C         189.7953   52.3932   87.6796 C.3      13        0    0.0000
     81 H         191.1491   51.5850   89.1695 H        13        0    0.0000
     82 H         189.5566   50.8352   89.1700 H        13        0    0.0000
     83 H         188.7232   52.5989   87.5706 H        13        0    0.0000
     84 H         190.3129   53.3546   87.5732 H        13        0    0.0000
     85 C         190.2484   51.4439   86.5173 C.3      14        0    0.0000
     86 C         189.9654   52.0422   85.1349 C.3      14        0    0.0000
     87 H         191.3206   51.2387   86.6260 H        14        0    0.0000
     88 H         189.7312   50.4823   86.6241 H        14        0    0.0000
     89 H         188.8900   52.2243   85.0169 H        14        0    0.0000
     90 H         190.4623   53.0154   85.0373 H        14        0    0.0000
     91 C         190.4503   51.1085   83.9728 C.3      15        0    0.0000
     92 C         190.1786   51.7124   82.5906 C.3      15        0    0.0000
     93 H         191.5238   50.9189   84.0961 H        15        0    0.0000
     94 H         189.9465   50.1383   84.0651 H        15        0    0.0000
     95 H         189.1195   51.9842   82.5005 H        15        0    0.0000
     96 H         190.7532   52.6385   82.4652 H        15        0    0.0000
     97 C         190.5480   50.7271   81.4287 C.3      16        0    0.0000
     98 C         190.2513   51.3208   80.0472 C.3      16        0    0.0000
     99 H         191.6118   50.4707   81.5073 H        16        0    0.0000
    100 H         189.9881   49.7936   81.5652 H        16        0    0.0000
    101 H         190.9649   52.1227   79.8212 H        16        0    0.0000
    102 H         190.3823   50.5550   79.2726 H        16        0    0.0000
    103 C         188.7965   51.8962   79.9479 C.3      17        0    0.0000
    104 C         188.5901   52.7390   78.6845 C.3      17        0    0.0000
    105 H         188.0843   51.0619   79.9640 H        17        0    0.0000
    106 H         188.5936   52.5008   80.8406 H        17        0    0.0000
    107 H         189.4097   53.4600   78.5753 H        17        0    0.0000
    108 H         188.6152   52.0965   77.7955 H        17        0    0.0000
    109 C         187.2305   53.5190   78.7061 C.3      18        0    0.0000
    110 C         186.9760   54.2790   77.3997 C.3      18        0    0.0000
    111 H         186.4171   52.8066   78.8914 H        18        0    0.0000
    112 H         187.2368   54.2171   79.5523 H        18        0    0.0000
    113 H         187.4083   55.2855   77.4597 H        18        0    0.0000
    114 H         187.4755   53.7709   76.5655 H        18        0    0.0000
    115 C         185.4479   54.4041   77.0731 C.3      19        0    0.0000
    116 C         185.1839   55.3155   75.8695 C.3      19        0    0.0000
    117 H         185.0440   53.4021   76.8821 H        19        0    0.0000
    118 H         184.9276   54.7900   77.9585 H        19        0    0.0000
    119 H         185.6839   56.2814   76.0123 H        19        0    0.0000
    120 H         185.6096   54.8716   74.9610 H        19        0    0.0000
    121 C         183.6538   55.5675   75.6395 C.3      20        0    0.0000
    122 C         183.2827   55.5704   74.1525 C.3      20        0    0.0000
    123 H         183.0845   54.7928   76.1678 H        20        0    0.0000
    124 H         183.3807   56.5264   76.0972 H        20        0    0.0000
    125 H         183.5652   56.5272   73.6961 H        20        0    0.0000
    126 H         183.8445   54.7909   73.6231 H        20        0    0.0000
    127 C         181.7503   55.3337   73.9221 C.3      21        0    0.0000
    128 C         181.4781   54.4071   72.7321 C.3      21        0    0.0000
    129 H         181.3167   54.9093   74.8362 H        21        0    0.0000
    130 H         181.2627   56.3035   73.7630 H        21        0    0.0000
    131 H         181.5674   54.9658   71.7922 H        21        0    0.0000
    132 H         182.2302   53.6092   72.6968 H        21        0    0.0000
    133 C         180.0536   53.7561   72.7996 C.3      22        0    0.0000
    134 C         179.7700   52.8530   71.5942 C.3      22        0    0.0000
    135 H         179.9722   53.1794   73.7292 H        22        0    0.0000
    136 H         179.3027   54.5538   72.8569 H        22        0    0.0000
    137 H         179.8091   53.4390   70.6676 H        22        0    0.0000
    138 H         180.5453   52.0812   71.5118 H        22        0    0.0000
    139 C         178.3700   52.1545   71.6916 C.3      23        0    0.0000
    140 C         178.4460   50.6554   71.3819 C.3      23        0    0.0000
    141 H         177.9664   52.3103   72.6997 H        23        0    0.0000
    142 H         177.6796   52.6477   70.9962 H        23        0    0.0000
    143 H         178.3344   50.4879   70.3035 H        23        0    0.0000
    144 H         179.4317   50.2631   71.6612 H        23        0    0.0000
    145 C         177.3435   49.8360   72.1373 C.3      24        0    0.0000
    146 C         176.0975   49.6061   71.2748 C.3      24        0    0.0000
    147 H         177.7688   48.8736   72.4479 H        24        0    0.0000
    148 H         177.0719   50.3714   73.0554 H        24        0    0.0000
    149 H         176.3463   49.7310   70.2137 H        24        0    0.0000
    150 H         175.7413   48.5755   71.3957 H        24        0    0.0000
    151 C         174.9326   50.5895   71.6398 C.3      25        0    0.0000
    152 C         173.6499   49.8493   72.0348 C.3      25        0    0.0000
    153 H         175.2613   51.2374   72.4618 H        25        0    0.0000
    154 H         174.7399   51.2438   70.7806 H        25        0    0.0000
    155 H         172.7789   50.3370   71.5798 H        25        0    0.0000
    156 H         173.6738   48.8228   71.6485 H        25        0    0.0000
    157 C         173.4470   49.7999   73.5885 C.3      26        0    0.0000
    158 C         172.0714   50.3268   74.0116 C.3      26        0    0.0000
    159 H         173.5743   48.7648   73.9289 H        26        0    0.0000
    160 H         174.2390   50.3887   74.0675 H        26        0    0.0000
    161 H         171.6770   51.0063   73.2460 H        26        0    0.0000
    162 H         171.3591   49.4963   74.0927 H        26        0    0.0000
    163 C         172.1216   51.0850   75.3828 C.3      27        0    0.0000
    164 C         170.7781   51.0434   76.1191 C.3      27        0    0.0000
    165 H         172.9060   50.6376   76.0057 H        27        0    0.0000
    166 H         172.4188   52.1253   75.2009 H        27        0    0.0000
    167 H         170.0407   51.6611   75.5917 H        27        0    0.0000
    168 H         170.3843   50.0194   76.1257 H        27        0    0.0000
    169 C         170.8954   51.5491   77.5983 C.3      28        0    0.0000
    170 C         169.6038   51.3261   78.3926 C.3      28        0    0.0000
    171 H         171.7305   51.0296   78.0844 H        28        0    0.0000
    172 H         171.1513   52.6159   77.5880 H        28        0    0.0000
    173 H         168.7839   51.9031   77.9473 H        28        0    0.0000
    174 H         169.3092   50.2704   78.3431 H        28        0    0.0000
    175 C         169.7530   51.7389   79.8975 C.3      29        0    0.0000
    176 C         168.6594   51.1259   80.7792 C.3      29        0    0.0000
    177 H         170.7425   51.4263   80.2535 H        29        0    0.0000
    178 H         169.7240   52.8333   79.9685 H        29        0    0.0000
    179 H         167.6817   51.5457   80.5123 H        29        0    0.0000
    180 H         168.5967   50.0448   80.6035 H        29        0    0.0000
    181 C         168.9170   51.3757   82.3052 C.3      30        0    0.0000
    182 C         168.3879   50.2326   83.1783 C.3      30        0    0.0000
    183 H         169.9947   51.5037   82.4656 H        30        0    0.0000
    184 H         168.4411   52.3210   82.5940 H        30        0    0.0000
    185 H         167.2918   50.2064   83.1401 H        30        0    0.0000
    186 H         168.7398   49.2688   82.7901 H        30        0    0.0000
    187 C         168.8381   50.3698   84.6736 C.3      31        0    0.0000
    188 C         167.6500   50.3540   85.6418 C.3      31        0    0.0000
    189 H         169.5282   49.5508   84.9117 H        31        0    0.0000
    190 H         169.4044   51.3023   84.7883 H        31        0    0.0000
    191 H         166.7930   50.8723   85.1940 H        31        0    0.0000
    192 H         167.3309   49.3212   85.8288 H        31        0    0.0000
    193 C         167.9916   51.0335   87.0126 C.3      32        0    0.0000
    194 C         167.9342   50.0440   88.1816 C.3      32        0    0.0000
    195 H         168.9915   51.4800   86.9464 H        32        0    0.0000
    196 H         167.2889   51.8585   87.1831 H        32        0    0.0000
    197 H         166.8966   49.9134   88.5132 H        32        0    0.0000
    198 H         168.2877   49.0575   87.8571 H        32        0    0.0000
    199 C         168.7991   50.5147   89.4014 C.3      33        0    0.0000
    200 C         168.0924   50.2775   90.7405 C.3      33        0    0.0000
    201 H         169.7575   49.9811   89.3821 H        33        0    0.0000
    202 H         169.0295   51.5805   89.2812 H        33        0    0.0000
    203 H         167.0555   50.6317   90.6866 H        33        0    0.0000
    204 H         168.0474   49.2029   90.9570 H        33        0    0.0000
    205 C         168.8128   51.0026   91.9291 C.3      34        0    0.0000
    206 C         168.3153   50.5148   93.2943 C.3      34        0    0.0000
    207 H         169.8937   50.8368   91.8415 H        34        0    0.0000
    208 H         168.6511   52.0835   91.8340 H        34        0    0.0000
    209 H         167.2473   50.7390   93.4075 H        34        0    0.0000
    210 H         168.4176   49.4248   93.3644 H        34        0    0.0000
    211 C         169.0984   51.1733   94.4819 C.3      35        0    0.0000
    212 C         168.5683   50.7233   95.8477 C.3      35        0    0.0000
    213 H         170.1615   50.9190   94.3887 H        35        0    0.0000
    214 H         169.0264   52.2643   94.3913 H        35        0    0.0000
    215 H         167.5027   50.9686   95.9370 H        35        0    0.0000
    216 H         168.6497   49.6334   95.9423 H        35        0    0.0000
    217 C         169.3420   51.3928   97.0354 C.3      36        0    0.0000
    218 C         168.8167   50.9373   98.4012 C.3      36        0    0.0000
    219 H         170.4084   51.1520   96.9431 H        36        0    0.0000
    220 H         169.2561   52.4827   96.9437 H        36        0    0.0000
    221 H         167.7510   51.1806   98.4945 H        36        0    0.0000
    222 H         168.9000   49.8471   98.4917 H        36        0    0.0000
    223 C         169.5930   51.6038   99.5888 C.3      37        0    0.0000
    224 C         169.0616   51.1553  100.9546 C.3      37        0    0.0000
    225 H         170.6577   51.3549   99.4992 H        37        0    0.0000
    226 H         169.5153   52.6940   99.4945 H        37        0    0.0000
    227 H         167.9963   51.4019  101.0432 H        37        0    0.0000
    228 H         169.1415   50.0653  101.0499 H        37        0    0.0000
    229 C         169.8356   51.8245  102.1422 C.3      38        0    0.0000
    230 C         169.3113   51.3677  103.5081 C.3      38        0    0.0000
    231 H         170.9020   51.5844  102.0492 H        38        0    0.0000
    232 H         169.7490   52.9143  102.0513 H        38        0    0.0000
    233 H         168.2453   51.6093  103.6018 H        38        0    0.0000
    234 H         169.3964   50.2777  103.5983 H        38        0    0.0000
    235 C         170.0869   52.0351  104.6957 C.3      39        0    0.0000
    236 C         169.5616   51.5794  106.0615 C.3      39        0    0.0000
    237 H         171.1528   51.7927  104.6026 H        39        0    0.0000
    238 H         170.0027   53.1252  104.6049 H        39        0    0.0000
    239 H         168.4961   51.8234  106.1552 H        39        0    0.0000
    240 H         169.6443   50.4892  106.1517 H        39        0    0.0000
    241 C         170.3387   52.2451  107.2491 C.3      40        0    0.0000
    242 C         169.8085   51.7952  108.6150 C.3      40        0    0.0000
    243 H         171.4034   51.9966  107.1585 H        40        0    0.0000
    244 H         170.2607   53.3354  107.1559 H        40        0    0.0000
    245 H         168.7435   52.0426  108.7051 H        40        0    0.0000
    246 H         169.8876   50.7050  108.7087 H        40        0    0.0000
    247 C         170.5845   52.4621  109.8026 C.3      41        0    0.0000
    248 C         170.0567   52.0092  111.1684 C.3      41        0    0.0000
    249 H         171.6499   52.2170  109.7108 H        41        0    0.0000
    250 H         170.5029   53.5522  109.7105 H        41        0    0.0000
    251 H         168.9923   52.2578  111.2617 H        41        0    0.0000
    252 H         170.1347   50.9187  111.2590 H        41        0    0.0000
    253 C         170.8364   52.6719  112.3561 C.3      42        0    0.0000
    254 C         170.3068   52.2212  113.7219 C.3      42        0    0.0000
    255 H         171.9005   52.4215  112.2640 H        42        0    0.0000
    256 H         170.7603   53.7624  112.2643 H        42        0    0.0000
    257 H         169.2411   52.4660  113.8115 H        42        0    0.0000
    258 H         170.3887   51.1313  113.8162 H        42        0    0.0000
    259 C         171.0806   52.8907  114.9095 C.3      43        0    0.0000
    260 C         170.5542   52.4363  116.2753 C.3      43        0    0.0000
    261 H         172.1468   52.6488  114.8179 H        43        0    0.0000
    262 H         170.9957   53.9805  114.8172 H        43        0    0.0000
    263 H         169.4861   52.6707  116.3637 H        43        0    0.0000
    264 H         170.6467   51.3474  116.3709 H        43        0    0.0000
    265 C         171.3203   53.1147  117.4630 C.3      44        0    0.0000
    266 C         170.7953   52.6586  118.8288 C.3      44        0    0.0000
    267 H         172.3885   52.8817  117.3736 H        44        0    0.0000
    268 H         171.2263   54.2036  117.3683 H        44        0    0.0000
    269 H         171.6059   52.2018  119.4099 H        44        0    0.0000
    270 H         170.4437   53.5237  119.4046 H        44        0    0.0000
    271 C         169.6222   51.6268  118.7001 C.3      45        0    0.0000
    272 C         169.0985   51.1693  120.0659 C.3      45        0    0.0000
    273 H         168.8111   52.0841  118.1201 H        45        0    0.0000
    274 H         169.9734   50.7623  118.1231 H        45        0    0.0000
    275 H         168.0288   51.3963  120.1539 H        45        0    0.0000
    276 H         169.1985   50.0810  120.1618 H        45        0    0.0000
    277 C         169.8596   51.8533  121.2535 C.3      46        0    0.0000
    278 C         169.5571   51.1849  122.5991 C.3      46        0    0.0000
    279 H         170.9370   51.8183  121.0499 H        46        0    0.0000
    280 H         169.5799   52.9135  121.2888 H        46        0    0.0000
    281 H         170.1198   51.6801  123.4001 H        46        0    0.0000
    282 H         168.4939   51.2980  122.8447 H        46        0    0.0000
    283 C         169.9159   49.6588  122.5984 C.3      47        0    0.0000
    284 C         170.8118   49.2723  123.7804 C.3      47        0    0.0000
    285 H         168.9863   49.0770  122.6249 H        47        0    0.0000
    286 H         170.4144   49.4132  121.6525 H        47        0    0.0000
    287 H         171.7414   49.8542  123.7539 H        47        0    0.0000
    288 H         170.3132   49.5179  124.7263 H        47        0    0.0000
    289 H         171.0613   48.2113  123.7800 H        47        0    0.0000
    290 H         189.2798   53.1887  121.7450 H         0        0    0.0000
@<TRIPOS>BOND
     1     1     2      1
     2     1     3      1
     3     1     4      1
     4     1   290      H
     5     2     5      1
     6     2     6      1
     7     2     7      1
     8     7     8      1
     9     7     9      1
    10     7    10      1
    11     8    11      1
    12     8    12      1
    13     8    13      1
    14    13    14      1
    15    13    15      1
    16    13    16      1
    17    14    17      1
    18    14    18      1
    19    14    19      1
    20    19    20      1
    21    19    21      1
    22    19    22      1
    23    20    23      1
    24    20    24      1
    25    20    25      1
    26    25    26      1
    27    25    27      1
    28    25    28      1
    29    26    29      1
    30    26    30      1
    31    26    31      1
    32    31    32      1
    33    31    33      1
    34    31    34      1
    35    32    35      1
    36    32    36      1
    37    32    37      1
    38    37    38      1
    39    37    39      1
    40    37    40      1
    41    38    41      1
    42    38    42      1
    43    38    43      1
    44    43    44      1
    45    43    45      1
    46    43    46      1
    47    44    47      1
    48    44    48      1
    49    44    49      1
    50    49    50      1
    51    49    51      1
    52    49    52      1
    53    50    53      1
    54    50    54      1
    55    50    55      1
    56    55    56      1
    57    55    57      1
    58    55    58      1
    59    56    59      1
    60    56    60      1
    61    56    61      1
    62    61    62      1
    63    61    63      1
    64    61    64      1
    65    62    65      1
    66    62    66      1
    67    62    67      1
    68    67    68      1
    69    67    69      1
    70    67    70      1
    71    68    71      1
    72    68    72      1
    73    68    73      1
    74    73    74      1
    75    73    75      1
    76    73    76      1
    77    74    77      1
    78    74    78      1
    79    74    79      1
    80    79    80      1
    81    79    81      1
    82    79    82      1
    83    80    83      1
    84    80    84      1
    85    80    85      1
    86    85    86      1
    87    85    87      1
    88    85    88      1
    89    86    89      1
    90    86    90      1
    91    86    91      1
    92    91    92      1
    93    91    93      1
    94    91    94      1
    95    92    95      1
    96    92    96      1
    97    92    97      1
    98    97    98      1
    99    97    99      1
   100    97   100      1
   101    98   101      1
   102    98   102      1
   103    98   103      1
   104   103   104      1
   105   103   105      1
   106   103   106      1
   107   104   107      1
   108   104   108      1
   109   104   109      1
   110   109   110      1
   111   109   111      1
   112   109   112      1
   113   110   113      1
   114   110   114      1
   115   110   115      1
   116   115   116      1
   117   115   117      1
   118   115   118      1
   119   116   119      1
   120   116   120      1
   121   116   121      1
   122   121   122      1
   123   121   123      1
   124   121   124      1
   125   122   125      1
   126   122   126      1
   127   122   127      1
   128   127   128      1
   129   127   129      1
   130   127   130      1
   131   128   131      1
   132   128   132      1
   133   128   133      1
   134   133   134      1
   135   133   135      1
   136   133   136      1
   137   134   137      1
   138   134   138      1
   139   134   139      1
   140   139   140      1
   141   139   141      1
   142   139   142      1
   143   140   143      1
   144   140   144      1
   145   140   145      1
   146   145   146      1
   147   145   147      1
   148   145   148      1
   149   146   149      1
   150   146   150      1
   151   146   151      1
   152   151   152      1
   153   151   153      1
   154   151   154      1
   155   152   155      1
   156   152   156      1
   157   152   157      1
   158   157   158      1
   159   157   159      1
   160   157   160      1
   161   158   161      1
   162   158   162      1
   163   158   163      1
   164   163   164      1
   165   163   165      1
   166   163   166      1
   167   164   167      1
   168   164   168      1
   169   164   169      1
   170   169   170      1
   171   169   171      1
   172   169   172      1
   173   170   173      1
   174   170   174      1
   175   170   175      1
   176   175   176      1
   177   175   177      1
   178   175   178      1
   179   176   179      1
   180   176   180      1
   181   176   181      1
   182   181   182      1
   183   181   183      1
   184   181   184      1
   185   182   185      1
   186   182   186      1
   187   182   187      1
   188   187   188      1
   189   187   189      1
   190   187   190      1
   191   188   191      1
   192   188   192      1
   193   188   193      1
   194   193   194      1
   195   193   195      1
   196   193   196      1
   197   194   197      1
   198   194   198      1
   199   194   199      1
   200   199   200      1
   201   199   201      1
   202   199   202      1
   203   200   203      1
   204   200   204      1
   205   200   205      1
   206   205   206      1
   207   205   207      1
   208   205   208      1
   209   206   209      1
   210   206   210      1
   211   206   211      1
   212   211   212      1
   213   211   213      1
   214   211   214      1
   215   212   215      1
   216   212   216      1
   217   212   217      1
   218   217   218      1
   219   217   219      1
   220   217   220      1
   221   218   221      1
   222   218   222      1
   223   218   223      1
   224   223   224      1
   225   223   225      1
   226   223   226      1
   227   224   227      1
   228   224   228      1
   229   224   229      1
   230   229   230      1
   231   229   231      1
   232   229   232      1
   233   230   233      1
   234   230   234      1
   235   230   235      1
   236   235   236      1
   237   235   237      1
   238   235   238      1
   239   236   239      1
   240   236   240      1
   241   236   241      1
   242   241   242      1
   243   241   243      1
   244   241   244      1
   245   242   245      1
   246   242   246      1
   247   242   247      1
   248   247   248      1
   249   247   249      1
   250   247   250      1
   251   248   251      1
   252   248   252      1
   253   248   253      1
   254   253   254      1
   255   253   255      1
   256   253   256      1
   257   254   257      1
   258   254   258      1
   259   254   259      1
   260   259   260      1
   261   259   261      1
   262   259   262      1
   263   260   263      1
   264   260   264      1
   265   260   265      1
   266   265   266      1
   267   265   267      1
   268   265   268      1
   269   266   269      1
   270   266   270      1
   271   266   271      1
   272   271   272      1
   273   271   273      1
   274   271   274      1
   275   272   275      1
   276   272   276      1
   277   272   277      1
   278   277   278      1
   279   277   279      1
   280   277   280      1
   281   278   281      1
   282   278   282      1
   283   278   283      1
   284   283   284      1
   285   283   285      1
   286   283   286      1
   287   284   287      1
   288   284   288      1
   289   284   289      H
