###
### Created by PolyChef-cpp17 on Thu Feb 27 19:40:30 2025
###

@<TRIPOS>MOLECULE
NO_INFO
152 151 1 0 0
SMALL
USER_CHARGES


@<TRIPOS>ATOM
      1 C          59.2798    1.2287  -39.3449 C.3       0        0    0.0000
      2 C          57.8706    1.0682  -38.7641 C.3       0        0    0.0000
      3 H          59.9271    0.4166  -38.9913 H         0        0    0.0000
      4 H          59.7280    2.1655  -38.9913 H         0        0    0.0000
      5 H          57.3723    2.0441  -38.7108 H         0        0    0.0000
      6 H          57.2610    0.4389  -39.4243 H         0        0    0.0000
      7 C          57.8873    0.4305  -37.3321 C.3       1        0    0.0000
      8 C          59.1650    0.7737  -36.5584 C.3       1        0    0.0000
      9 H          57.0070    0.7806  -36.7789 H         1        0    0.0000
     10 H          57.7866   -0.6577  -37.4284 H         1        0    0.0000
     11 H          60.0453    0.5974  -37.1888 H         1        0    0.0000
     12 H          59.1723    1.8393  -36.2979 H         1        0    0.0000
     13 C          59.3079   -0.0687  -35.2440 C.3       2        0    0.0000
     14 C          60.2051    0.6182  -34.2085 C.3       2        0    0.0000
     15 H          58.3094   -0.2389  -34.8227 H         2        0    0.0000
     16 H          59.7147   -1.0552  -35.4988 H         2        0    0.0000
     17 H          61.2598    0.4965  -34.4849 H         2        0    0.0000
     18 H          60.0056    1.6969  -34.1945 H         2        0    0.0000
     19 C          59.9918    0.0460  -32.7648 C.3       3        0    0.0000
     20 C          60.6191    0.9381  -31.6878 C.3       3        0    0.0000
     21 H          58.9154   -0.0627  -32.5830 H         3        0    0.0000
     22 H          60.4228   -0.9617  -32.7165 H         3        0    0.0000
     23 H          61.7083    0.9715  -31.8147 H         3        0    0.0000
     24 H          60.2577    1.9683  -31.7953 H         3        0    0.0000
     25 C          60.2943    0.4373  -30.2383 C.3       4        0    0.0000
     26 C          60.8988    1.3447  -29.1612 C.3       4        0    0.0000
     27 H          59.2051    0.3848  -30.1181 H         4        0    0.0000
     28 H          60.6735   -0.5858  -30.1244 H         4        0    0.0000
     29 H          61.9888    1.3912  -29.2768 H         4        0    0.0000
     30 H          60.5255    2.3695  -29.2797 H         4        0    0.0000
     31 C          60.5651    0.8499  -27.7116 C.3       5        0    0.0000
     32 C          61.1842    1.7475  -26.6345 C.3       5        0    0.0000
     33 H          59.4751    0.8157  -27.5919 H         5        0    0.0000
     34 H          60.9270   -0.1794  -27.5972 H         5        0    0.0000
     35 H          62.2738    1.7845  -26.7565 H         5        0    0.0000
     36 H          60.8195    2.7760  -26.7467 H         5        0    0.0000
     37 C          60.8546    1.2498  -25.1850 C.3       6        0    0.0000
     38 C          61.4105    2.1882  -24.1082 C.3       6        0    0.0000
     39 H          59.7662    1.1605  -25.0807 H         6        0    0.0000
     40 H          61.2673    0.2416  -25.0549 H         6        0    0.0000
     41 H          62.5000    2.2705  -24.2071 H         6        0    0.0000
     42 H          61.0047    3.1984  -24.2437 H         6        0    0.0000
     43 C          61.0703    1.6971  -22.6589 C.3       7        0    0.0000
     44 C          62.1711    2.0501  -21.6526 C.3       7        0    0.0000
     45 H          60.1185    2.1453  -22.3480 H         7        0    0.0000
     46 H          60.9149    0.6113  -22.6809 H         7        0    0.0000
     47 H          63.1457    1.7144  -22.0280 H         7        0    0.0000
     48 H          62.2372    3.1387  -21.5340 H         7        0    0.0000
     49 C          61.9208    1.4030  -20.2469 C.3       8        0    0.0000
     50 C          61.9445    2.4392  -19.1179 C.3       8        0    0.0000
     51 H          60.9533    0.8860  -20.2628 H         8        0    0.0000
     52 H          62.6849    0.6360  -20.0696 H         8        0    0.0000
     53 H          62.9805    2.6668  -18.8378 H         8        0    0.0000
     54 H          61.4971    3.3801  -19.4614 H         8        0    0.0000
     55 C          61.1731    1.9482  -17.8446 C.3       9        0    0.0000
     56 C          62.0328    2.0272  -16.5782 C.3       9        0    0.0000
     57 H          60.2679    2.5559  -17.7233 H         9        0    0.0000
     58 H          60.8398    0.9160  -18.0091 H         9        0    0.0000
     59 H          63.0464    1.6639  -16.7883 H         9        0    0.0000
     60 H          62.1327    3.0711  -16.2560 H         9        0    0.0000
     61 C          61.4304    1.1896  -15.3979 C.3      10        0    0.0000
     62 C          61.7647    1.7914  -14.0286 C.3      10        0    0.0000
     63 H          60.3426    1.1288  -15.5266 H        10        0    0.0000
     64 H          61.8129    0.1634  -15.4614 H        10        0    0.0000
     65 H          62.8436    1.7237  -13.8413 H        10        0    0.0000
     66 H          61.5088    2.8581  -14.0139 H        10        0    0.0000
     67 C          61.0032    1.0729  -12.8619 C.3      11        0    0.0000
     68 C          61.4768    1.5438  -11.4824 C.3      11        0    0.0000
     69 H          59.9279    1.2589  -12.9741 H        11        0    0.0000
     70 H          61.1475   -0.0102  -12.9597 H        11        0    0.0000
     71 H          62.5593    1.3941  -11.3850 H        11        0    0.0000
     72 H          61.2963    2.6200  -11.3698 H        11        0    0.0000
     73 C          60.7548    0.7855  -10.3157 C.3      12        0    0.0000
     74 C          61.2174    1.2670   -8.9361 C.3      12        0    0.0000
     75 H          59.6718    0.9260  -10.4195 H        12        0    0.0000
     76 H          60.9447   -0.2898  -10.4219 H        12        0    0.0000
     77 H          62.2999    1.1231   -8.8309 H        12        0    0.0000
     78 H          61.0310    2.3430   -8.8312 H        12        0    0.0000
     79 C          60.4916    0.5124   -7.7693 C.3      13        0    0.0000
     80 C          60.9556    0.9925   -6.3898 C.3      13        0    0.0000
     81 H          59.4092    0.6576   -7.8737 H        13        0    0.0000
     82 H          60.6768   -0.5637   -7.8750 H        13        0    0.0000
     83 H          62.0378    0.8463   -6.2849 H        13        0    0.0000
     84 H          60.7715    2.0689   -6.2845 H        13        0    0.0000
     85 C          60.2285    0.2391   -5.2230 C.3      14        0    0.0000
     86 C          60.6928    0.7189   -3.8434 C.3      14        0    0.0000
     87 H          59.1463    0.3857   -5.3277 H        14        0    0.0000
     88 H          60.4123   -0.8373   -5.3284 H        14        0    0.0000
     89 H          61.7760    0.5785   -3.7412 H        14        0    0.0000
     90 H          60.5030    1.7941   -3.7356 H        14        0    0.0000
     91 C          59.9724   -0.0409   -2.6767 C.3      15        0    0.0000
     92 C          60.4298    0.4455   -1.2971 C.3      15        0    0.0000
     93 H          58.8889    0.0938   -2.7829 H        15        0    0.0000
     94 H          60.1680   -1.1153   -2.7806 H        15        0    0.0000
     95 H          61.5109    0.2964   -1.1850 H        15        0    0.0000
     96 H          60.2486    1.5231   -1.1991 H        15        0    0.0000
     97 C          59.6934   -0.2989   -0.1305 C.3      16        0    0.0000
     98 C          59.9512    0.3563    1.2308 C.3      16        0    0.0000
     99 H          58.6173   -0.3128   -0.3435 H        16        0    0.0000
    100 H          60.0247   -1.3446   -0.1135 H        16        0    0.0000
    101 H          60.9077    0.0087    1.6405 H        16        0    0.0000
    102 H          60.0347    1.4440    1.1150 H        16        0    0.0000
    103 C          58.8153    0.0440    2.2651 C.3      17        0    0.0000
    104 C          59.0917    0.6679    3.6375 C.3      17        0    0.0000
    105 H          57.8630    0.4164    1.8676 H        17        0    0.0000
    106 H          58.7130   -1.0441    2.3602 H        17        0    0.0000
    107 H          60.0494    0.3042    4.0300 H        17        0    0.0000
    108 H          59.1828    1.7572    3.5440 H        17        0    0.0000
    109 C          57.9636    0.3424    4.6762 C.3      18        0    0.0000
    110 C          58.2399    0.9666    6.0484 C.3      18        0    0.0000
    111 H          57.0059    0.7058    4.2835 H        18        0    0.0000
    112 H          57.8728   -0.7469    4.7698 H        18        0    0.0000
    113 H          59.1981    0.6039    6.4406 H        18        0    0.0000
    114 H          58.3298    2.0559    5.9550 H        18        0    0.0000
    115 C          57.1124    0.6399    7.0875 C.3      19        0    0.0000
    116 C          57.3869    1.2671    8.4588 C.3      19        0    0.0000
    117 H          56.1538    1.0002    6.6941 H        19        0    0.0000
    118 H          57.0243   -0.4494    7.1830 H        19        0    0.0000
    119 H          58.3459    0.9074    8.8518 H        19        0    0.0000
    120 H          57.4742    2.3565    8.3634 H        19        0    0.0000
    121 C          56.2600    0.9396    9.4981 C.3      20        0    0.0000
    122 C          56.5327    1.5697   10.8684 C.3      20        0    0.0000
    123 H          55.3006    1.2970    9.1039 H        20        0    0.0000
    124 H          56.1744   -0.1498    9.5954 H        20        0    0.0000
    125 H          57.4918    1.2119   11.2628 H        20        0    0.0000
    126 H          56.6188    2.6590   10.7711 H        20        0    0.0000
    127 C          55.4054    1.2428   11.9076 C.3      21        0    0.0000
    128 C          55.7042    1.8282   13.2921 C.3      21        0    0.0000
    129 H          54.4527    1.6351   11.5309 H        21        0    0.0000
    130 H          55.2927    0.1537   11.9760 H        21        0    0.0000
    131 H          56.6607    1.4419   13.6655 H        21        0    0.0000
    132 H          55.8094    2.9182   13.2249 H        21        0    0.0000
    133 C          54.5823    1.4921   14.3341 C.3      22        0    0.0000
    134 C          54.1226    2.7299   15.1123 C.3      22        0    0.0000
    135 H          53.7322    1.0428   13.8058 H        22        0    0.0000
    136 H          54.9603    0.7307   15.0275 H        22        0    0.0000
    137 H          54.7557    2.8749   15.9964 H        22        0    0.0000
    138 H          54.2368    3.6278   14.4924 H        22        0    0.0000
    139 C          52.6283    2.6208   15.5733 C.3      23        0    0.0000
    140 C          52.5001    2.1065   17.0114 C.3      23        0    0.0000
    141 H          52.1575    3.6076   15.4833 H        23        0    0.0000
    142 H          52.0941    1.9531   14.8860 H        23        0    0.0000
    143 H          53.3392    2.4705   17.6172 H        23        0    0.0000
    144 H          51.5853    2.5001   17.4715 H        23        0    0.0000
    145 C          52.4678    0.5408   17.0818 C.3      24        0    0.0000
    146 C          51.4643    0.0266   18.1199 C.3      24        0    0.0000
    147 H          52.2168    0.1473   16.0889 H        24        0    0.0000
    148 H          53.4749    0.1767   17.3196 H        24        0    0.0000
    149 H          51.7152    0.4201   19.1127 H        24        0    0.0000
    150 H          50.4571    0.3908   17.8820 H        24        0    0.0000
    151 H          51.4418   -1.0620   18.1688 H        24        0    0.0000
    152 H          59.2798    1.2287  -40.4349 H         0        0    0.0000
@<TRIPOS>BOND
     1     1     2      1
     2     1     3      1
     3     1     4      1
     4     1   152      H
     5     2     5      1
     6     2     6      1
     7     2     7      1
     8     7     8      1
     9     7     9      1
    10     7    10      1
    11     8    11      1
    12     8    12      1
    13     8    13      1
    14    13    14      1
    15    13    15      1
    16    13    16      1
    17    14    17      1
    18    14    18      1
    19    14    19      1
    20    19    20      1
    21    19    21      1
    22    19    22      1
    23    20    23      1
    24    20    24      1
    25    20    25      1
    26    25    26      1
    27    25    27      1
    28    25    28      1
    29    26    29      1
    30    26    30      1
    31    26    31      1
    32    31    32      1
    33    31    33      1
    34    31    34      1
    35    32    35      1
    36    32    36      1
    37    32    37      1
    38    37    38      1
    39    37    39      1
    40    37    40      1
    41    38    41      1
    42    38    42      1
    43    38    43      1
    44    43    44      1
    45    43    45      1
    46    43    46      1
    47    44    47      1
    48    44    48      1
    49    44    49      1
    50    49    50      1
    51    49    51      1
    52    49    52      1
    53    50    53      1
    54    50    54      1
    55    50    55      1
    56    55    56      1
    57    55    57      1
    58    55    58      1
    59    56    59      1
    60    56    60      1
    61    56    61      1
    62    61    62      1
    63    61    63      1
    64    61    64      1
    65    62    65      1
    66    62    66      1
    67    62    67      1
    68    67    68      1
    69    67    69      1
    70    67    70      1
    71    68    71      1
    72    68    72      1
    73    68    73      1
    74    73    74      1
    75    73    75      1
    76    73    76      1
    77    74    77      1
    78    74    78      1
    79    74    79      1
    80    79    80      1
    81    79    81      1
    82    79    82      1
    83    80    83      1
    84    80    84      1
    85    80    85      1
    86    85    86      1
    87    85    87      1
    88    85    88      1
    89    86    89      1
    90    86    90      1
    91    86    91      1
    92    91    92      1
    93    91    93      1
    94    91    94      1
    95    92    95      1
    96    92    96      1
    97    92    97      1
    98    97    98      1
    99    97    99      1
   100    97   100      1
   101    98   101      1
   102    98   102      1
   103    98   103      1
   104   103   104      1
   105   103   105      1
   106   103   106      1
   107   104   107      1
   108   104   108      1
   109   104   109      1
   110   109   110      1
   111   109   111      1
   112   109   112      1
   113   110   113      1
   114   110   114      1
   115   110   115      1
   116   115   116      1
   117   115   117      1
   118   115   118      1
   119   116   119      1
   120   116   120      1
   121   116   121      1
   122   121   122      1
   123   121   123      1
   124   121   124      1
   125   122   125      1
   126   122   126      1
   127   122   127      1
   128   127   128      1
   129   127   129      1
   130   127   130      1
   131   128   131      1
   132   128   132      1
   133   128   133      1
   134   133   134      1
   135   133   135      1
   136   133   136      1
   137   134   137      1
   138   134   138      1
   139   134   139      1
   140   139   140      1
   141   139   141      1
   142   139   142      1
   143   140   143      1
   144   140   144      1
   145   140   145      1
   146   145   146      1
   147   145   147      1
   148   145   148      1
   149   146   149      1
   150   146   150      1
   151   146   151      H
