###
### Created by PolyChef-cpp17 on Thu Feb 27 19:40:30 2025
###

@<TRIPOS>MOLECULE
NO_INFO
152 151 1 0 0
SMALL
USER_CHARGES


@<TRIPOS>ATOM
      1 C         159.2798   35.8687  120.6551 C.3       0        0    0.0000
      2 C         158.4513   34.7175  120.0742 C.3       0        0    0.0000
      3 H         158.8875   36.8302  120.3015 H         0        0    0.0000
      4 H         160.3162   35.8021  120.3014 H         0        0    0.0000
      5 H         158.4072   33.8873  120.7900 H         0        0    0.0000
      6 H         157.4176   35.0448  119.9073 H         0        0    0.0000
      7 C         159.0381   34.1871  118.7208 C.3       1        0    0.0000
      8 C         159.6351   35.3108  117.8665 C.3       1        0    0.0000
      9 H         159.8043   33.4329  118.9390 H         1        0    0.0000
     10 H         158.2416   33.6756  118.1663 H         1        0    0.0000
     11 H         158.9456   36.1634  117.8312 H         1        0    0.0000
     12 H         160.5644   35.6758  118.3211 H         1        0    0.0000
     13 C         159.9386   34.8455  116.4006 C.3       2        0    0.0000
     14 C         159.8966   36.0073  115.4019 C.3       2        0    0.0000
     15 H         160.9251   34.3662  116.3788 H         2        0    0.0000
     16 H         159.2089   34.0776  116.1151 H         2        0    0.0000
     17 H         158.9819   36.5954  115.5471 H         2        0    0.0000
     18 H         160.7395   36.6867  115.5796 H         2        0    0.0000
     19 C         159.9497   35.5146  113.9147 C.3       3        0    0.0000
     20 C         159.8189   36.6692  112.9152 C.3       3        0    0.0000
     21 H         160.8948   34.9817  113.7522 H         3        0    0.0000
     22 H         159.1456   34.7857  113.7547 H         3        0    0.0000
     23 H         158.8804   37.2108  113.0868 H         3        0    0.0000
     24 H         160.6313   37.3910  113.0659 H         3        0    0.0000
     25 C         159.8521   36.1743  111.4281 C.3       4        0    0.0000
     26 C         159.9531   37.3347  110.4319 C.3       4        0    0.0000
     27 H         160.7033   35.4940  111.3007 H         4        0    0.0000
     28 H         158.9470   35.5867  111.2307 H         4        0    0.0000
     29 H         159.0841   37.9962  110.5357 H         4        0    0.0000
     30 H         160.8397   37.9425  110.6510 H         4        0    0.0000
     31 C         160.0355   36.8377  108.9474 C.3       5        0    0.0000
     32 C         159.0312   37.5547  108.0383 C.3       5        0    0.0000
     33 H         161.0564   36.9952  108.5780 H         5        0    0.0000
     34 H         159.8562   35.7556  108.9263 H         5        0    0.0000
     35 H         158.0683   37.6625  108.5529 H         5        0    0.0000
     36 H         159.3839   38.5690  107.8143 H         5        0    0.0000
     37 C         158.8003   36.7905  106.6892 C.3       6        0    0.0000
     38 C         159.2487   37.6094  105.4737 C.3       6        0    0.0000
     39 H         159.3456   35.8392  106.7238 H         6        0    0.0000
     40 H         157.7357   36.5404  106.6022 H         6        0    0.0000
     41 H         158.4272   38.2484  105.1268 H         6        0    0.0000
     42 H         160.0717   38.2786  105.7538 H         6        0    0.0000
     43 C         159.7184   36.7008  104.2857 C.3       7        0    0.0000
     44 C         159.2334   37.2224  102.9286 C.3       7        0    0.0000
     45 H         160.8139   36.6427  104.2967 H         7        0    0.0000
     46 H         159.3472   35.6819  104.4516 H         7        0    0.0000
     47 H         158.1639   37.4616  102.9779 H         7        0    0.0000
     48 H         159.7534   38.1548  102.6763 H         7        0    0.0000
     49 C         159.4667   36.1859  101.7759 C.3       8        0    0.0000
     50 C         159.3085   36.8157  100.3876 C.3       8        0    0.0000
     51 H         160.4714   35.7584  101.8828 H         8        0    0.0000
     52 H         158.7575   35.3576  101.8963 H         8        0    0.0000
     53 H         158.2829   37.1820  100.2554 H         8        0    0.0000
     54 H         159.9689   37.6865  100.2921 H         8        0    0.0000
     55 C         159.6362   35.8043   99.2356 C.3       9        0    0.0000
     56 C         159.4437   36.4234   97.8468 C.3       9        0    0.0000
     57 H         160.6705   35.4577   99.3528 H         9        0    0.0000
     58 H         158.9939   34.9219   99.3464 H         9        0    0.0000
     59 H         158.4109   36.7750   97.7316 H         9        0    0.0000
     60 H         160.0902   37.3026   97.7340 H         9        0    0.0000
     61 C         159.7639   35.4096   96.6948 C.3      10        0    0.0000
     62 C         159.5635   36.0263   95.3060 C.3      10        0    0.0000
     63 H         160.7986   35.0626   96.8065 H        10        0    0.0000
     64 H         159.1216   34.5279   96.8111 H        10        0    0.0000
     65 H         158.5290   36.3741   95.1946 H        10        0    0.0000
     66 H         160.2064   36.9076   95.1894 H        10        0    0.0000
     67 C         159.8824   35.0121   94.1540 C.3      11        0    0.0000
     68 C         159.6849   35.6297   92.7653 C.3      11        0    0.0000
     69 H         160.9162   34.6626   94.2667 H        11        0    0.0000
     70 H         159.2379   34.1319   94.2694 H        11        0    0.0000
     71 H         158.6503   35.9765   92.6515 H        11        0    0.0000
     72 H         160.3271   36.5117   92.6510 H        11        0    0.0000
     73 C         160.0079   34.6168   91.6132 C.3      12        0    0.0000
     74 C         159.8069   35.2333   90.2245 C.3      12        0    0.0000
     75 H         161.0433   34.2720   91.7255 H        12        0    0.0000
     76 H         159.3674   33.7337   91.7290 H        12        0    0.0000
     77 H         158.7710   35.5764   90.1115 H        12        0    0.0000
     78 H         160.4460   36.1175   90.1094 H        12        0    0.0000
     79 C         160.1324   34.2212   89.0724 C.3      13        0    0.0000
     80 C         159.9355   34.8390   87.6837 C.3      13        0    0.0000
     81 H         161.1673   33.8758   89.1872 H        13        0    0.0000
     82 H         159.4911   33.3383   89.1857 H        13        0    0.0000
     83 H         158.9000   35.1826   87.5682 H        13        0    0.0000
     84 H         160.5751   35.7232   87.5711 H        13        0    0.0000
     85 C         160.2638   33.8279   86.5316 C.3      14        0    0.0000
     86 C         160.0645   34.4449   85.1429 C.3      14        0    0.0000
     87 H         161.2999   33.4857   86.6461 H        14        0    0.0000
     88 H         159.6255   32.9429   86.6452 H        14        0    0.0000
     89 H         159.0304   34.7937   85.0312 H        14        0    0.0000
     90 H         160.7083   35.3255   85.0266 H        14        0    0.0000
     91 C         160.3828   33.4305   83.9909 C.3      15        0    0.0000
     92 C         160.1926   34.0504   82.6021 C.3      15        0    0.0000
     93 H         161.4146   33.0764   84.1066 H        15        0    0.0000
     94 H         159.7341   32.5529   84.1032 H        15        0    0.0000
     95 H         159.1783   34.4575   82.5076 H        15        0    0.0000
     96 H         160.8836   34.8918   82.4679 H        15        0    0.0000
     97 C         160.4300   33.0131   81.4510 C.3      16        0    0.0000
     98 C         160.2304   33.6306   80.0624 C.3      16        0    0.0000
     99 H         161.4467   32.6111   81.5413 H        16        0    0.0000
    100 H         159.7438   32.1684   81.5891 H        16        0    0.0000
    101 H         159.6246   34.5419   80.1396 H        16        0    0.0000
    102 H         161.1981   33.9303   79.6414 H        16        0    0.0000
    103 C         159.5310   32.6416   79.0674 C.3      17        0    0.0000
    104 C         159.4045   33.2290   77.6574 C.3      17        0    0.0000
    105 H         160.1050   31.7072   79.0355 H        17        0    0.0000
    106 H         158.5383   32.3883   79.4598 H        17        0    0.0000
    107 H         158.5364   33.8978   77.6050 H        17        0    0.0000
    108 H         160.2861   33.8384   77.4233 H        17        0    0.0000
    109 C         159.2530   32.1177   76.5622 C.3      18        0    0.0000
    110 C         159.0913   32.7061   75.1562 C.3      18        0    0.0000
    111 H         160.1334   31.4641   76.5975 H        18        0    0.0000
    112 H         158.3863   31.4925   76.8103 H        18        0    0.0000
    113 H         158.2698   33.4331   75.1449 H        18        0    0.0000
    114 H         159.9989   33.2518   74.8701 H        18        0    0.0000
    115 C         158.8046   31.6029   74.0800 C.3      19        0    0.0000
    116 C         158.6494   32.1905   72.6730 C.3      19        0    0.0000
    117 H         159.6237   30.8732   74.0946 H        19        0    0.0000
    118 H         157.8942   31.0603   74.3635 H        19        0    0.0000
    119 H         157.8226   32.9115   72.6555 H        19        0    0.0000
    120 H         159.5551   32.7430   72.3940 H        19        0    0.0000
    121 C         158.3792   31.0856   71.5942 C.3      20        0    0.0000
    122 C         158.2220   31.6734   70.1875 C.3      20        0    0.0000
    123 H         159.2066   30.3655   71.6107 H        20        0    0.0000
    124 H         157.4742   30.5321   71.8739 H        20        0    0.0000
    125 H         157.3949   32.3940   70.1711 H        20        0    0.0000
    126 H         159.1272   32.2265   69.9076 H        20        0    0.0000
    127 C         157.9510   30.5686   69.1088 C.3      21        0    0.0000
    128 C         157.7940   31.1564   67.7021 C.3      21        0    0.0000
    129 H         158.7781   29.8480   69.1253 H        21        0    0.0000
    130 H         157.0458   30.0157   69.3887 H        21        0    0.0000
    131 H         156.9668   31.8768   67.6856 H        21        0    0.0000
    132 H         158.6991   31.7096   67.4224 H        21        0    0.0000
    133 C         157.5235   30.0516   66.6234 C.3      22        0    0.0000
    134 C         157.3666   30.6393   65.2166 C.3      22        0    0.0000
    135 H         158.3506   29.3311   66.6400 H        22        0    0.0000
    136 H         156.6182   29.4985   66.9030 H        22        0    0.0000
    137 H         156.5387   31.3589   65.1997 H        22        0    0.0000
    138 H         158.2714   31.1934   64.9374 H        22        0    0.0000
    139 C         157.0977   29.5344   64.1376 C.3      23        0    0.0000
    140 C         156.9394   30.1223   62.7311 C.3      23        0    0.0000
    141 H         157.9261   28.8153   64.1538 H        23        0    0.0000
    142 H         156.1936   28.9796   64.4174 H        23        0    0.0000
    143 H         156.9200   29.3166   61.9867 H        23        0    0.0000
    144 H         155.9810   30.6498   62.6495 H        23        0    0.0000
    145 C         158.0959   31.1167   62.3693 C.3      24        0    0.0000
    146 C         157.7789   31.9466   61.1203 C.3      24        0    0.0000
    147 H         158.2738   31.7789   63.2257 H        24        0    0.0000
    148 H         159.0194   30.5446   62.2163 H        24        0    0.0000
    149 H         157.6011   31.2845   60.2639 H        24        0    0.0000
    150 H         156.8555   32.5188   61.2733 H        24        0    0.0000
    151 H         158.5831   32.6381   60.8687 H        24        0    0.0000
    152 H         159.2798   35.8687  121.7450 H         0        0    0.0000
@<TRIPOS>BOND
     1     1     2      1
     2     1     3      1
     3     1     4      1
     4     1   152      H
     5     2     5      1
     6     2     6      1
     7     2     7      1
     8     7     8      1
     9     7     9      1
    10     7    10      1
    11     8    11      1
    12     8    12      1
    13     8    13      1
    14    13    14      1
    15    13    15      1
    16    13    16      1
    17    14    17      1
    18    14    18      1
    19    14    19      1
    20    19    20      1
    21    19    21      1
    22    19    22      1
    23    20    23      1
    24    20    24      1
    25    20    25      1
    26    25    26      1
    27    25    27      1
    28    25    28      1
    29    26    29      1
    30    26    30      1
    31    26    31      1
    32    31    32      1
    33    31    33      1
    34    31    34      1
    35    32    35      1
    36    32    36      1
    37    32    37      1
    38    37    38      1
    39    37    39      1
    40    37    40      1
    41    38    41      1
    42    38    42      1
    43    38    43      1
    44    43    44      1
    45    43    45      1
    46    43    46      1
    47    44    47      1
    48    44    48      1
    49    44    49      1
    50    49    50      1
    51    49    51      1
    52    49    52      1
    53    50    53      1
    54    50    54      1
    55    50    55      1
    56    55    56      1
    57    55    57      1
    58    55    58      1
    59    56    59      1
    60    56    60      1
    61    56    61      1
    62    61    62      1
    63    61    63      1
    64    61    64      1
    65    62    65      1
    66    62    66      1
    67    62    67      1
    68    67    68      1
    69    67    69      1
    70    67    70      1
    71    68    71      1
    72    68    72      1
    73    68    73      1
    74    73    74      1
    75    73    75      1
    76    73    76      1
    77    74    77      1
    78    74    78      1
    79    74    79      1
    80    79    80      1
    81    79    81      1
    82    79    82      1
    83    80    83      1
    84    80    84      1
    85    80    85      1
    86    85    86      1
    87    85    87      1
    88    85    88      1
    89    86    89      1
    90    86    90      1
    91    86    91      1
    92    91    92      1
    93    91    93      1
    94    91    94      1
    95    92    95      1
    96    92    96      1
    97    92    97      1
    98    97    98      1
    99    97    99      1
   100    97   100      1
   101    98   101      1
   102    98   102      1
   103    98   103      1
   104   103   104      1
   105   103   105      1
   106   103   106      1
   107   104   107      1
   108   104   108      1
   109   104   109      1
   110   109   110      1
   111   109   111      1
   112   109   112      1
   113   110   113      1
   114   110   114      1
   115   110   115      1
   116   115   116      1
   117   115   117      1
   118   115   118      1
   119   116   119      1
   120   116   120      1
   121   116   121      1
   122   121   122      1
   123   121   123      1
   124   121   124      1
   125   122   125      1
   126   122   126      1
   127   122   127      1
   128   127   128      1
   129   127   129      1
   130   127   130      1
   131   128   131      1
   132   128   132      1
   133   128   133      1
   134   133   134      1
   135   133   135      1
   136   133   136      1
   137   134   137      1
   138   134   138      1
   139   134   139      1
   140   139   140      1
   141   139   141      1
   142   139   142      1
   143   140   143      1
   144   140   144      1
   145   140   145      1
   146   145   146      1
   147   145   147      1
   148   145   148      1
   149   146   149      1
   150   146   150      1
   151   146   151      H
