###
### Created by PolyChef-cpp17 on Thu Feb 27 19:40:29 2025
###

@<TRIPOS>MOLECULE
NO_INFO
1172 1171 1 0 0
SMALL
USER_CHARGES


@<TRIPOS>ATOM
      1 C         139.2798  105.1487  120.6551 C.3       0        0    0.0000
      2 C         138.4513  103.9975  120.0742 C.3       0        0    0.0000
      3 H         138.8875  106.1102  120.3015 H         0        0    0.0000
      4 H         140.3161  105.0821  120.3014 H         0        0    0.0000
      5 H         138.4070  103.1674  120.7901 H         0        0    0.0000
      6 H         137.4176  104.3249  119.9072 H         0        0    0.0000
      7 C         139.0382  103.4669  118.7209 C.3       1        0    0.0000
      8 C         139.6356  104.5905  117.8666 C.3       1        0    0.0000
      9 H         139.8043  102.7126  118.9393 H         1        0    0.0000
     10 H         138.2417  102.9556  118.1663 H         1        0    0.0000
     11 H         138.9449  105.4420  117.8286 H         1        0    0.0000
     12 H         140.5632  104.9575  118.3231 H         1        0    0.0000
     13 C         139.9434  104.1238  116.4021 C.3       2        0    0.0000
     14 C         139.8895  105.2822  115.3999 C.3       2        0    0.0000
     15 H         140.9348  103.6544  116.3815 H         2        0    0.0000
     16 H         139.2215  103.3477  116.1192 H         2        0    0.0000
     17 H         138.9708  105.8636  115.5461 H         2        0    0.0000
     18 H         140.7276  105.9686  115.5729 H         2        0    0.0000
     19 C         139.9419  104.7852  113.9141 C.3       3        0    0.0000
     20 C         139.8254  105.9385  112.9114 C.3       3        0    0.0000
     21 H         140.8820  104.2425  113.7556 H         3        0    0.0000
     22 H         139.1309  104.0639  113.7537 H         3        0    0.0000
     23 H         138.8905  106.4881  113.0772 H         3        0    0.0000
     24 H         140.6428  106.6540  113.0644 H         3        0    0.0000
     25 C         139.8617  105.4399  111.4256 C.3       4        0    0.0000
     26 C         139.8778  106.5998  110.4239 C.3       4        0    0.0000
     27 H         140.7488  104.8097  111.2857 H         4        0    0.0000
     28 H         138.9890  104.7998  111.2460 H         4        0    0.0000
     29 H         138.9801  107.2178  110.5495 H         4        0    0.0000
     30 H         140.7386  107.2518  110.6171 H         4        0    0.0000
     31 C         139.9445  106.1016  108.9390 C.3       5        0    0.0000
     32 C         138.8894  106.7732  108.0531 C.3       5        0    0.0000
     33 H         140.9487  106.3000  108.5443 H         5        0    0.0000
     34 H         139.8099  105.0130  108.9249 H         5        0    0.0000
     35 H         137.9306  106.8252  108.5837 H         5        0    0.0000
     36 H         139.1847  107.8067  107.8340 H         5        0    0.0000
     37 C         138.6773  106.0106  106.6999 C.3       6        0    0.0000
     38 C         139.0329  106.8742  105.4847 C.3       6        0    0.0000
     39 H         139.2900  105.1007  106.7070 H         6        0    0.0000
     40 H         137.6313  105.6857  106.6374 H         6        0    0.0000
     41 H         138.1530  107.4404  105.1551 H         6        0    0.0000
     42 H         139.7978  107.6116  105.7581 H         6        0    0.0000
     43 C         139.5626  106.0187  104.2826 C.3       7        0    0.0000
     44 C         138.9828  106.4805  102.9410 C.3       7        0    0.0000
     45 H         140.6577  106.0802  104.2602 H         7        0    0.0000
     46 H         139.3098  104.9659  104.4592 H         7        0    0.0000
     47 H         137.8963  106.6070  103.0244 H         7        0    0.0000
     48 H         139.3943  107.4609  102.6709 H         7        0    0.0000
     49 C         139.2863  105.4686  101.7828 C.3       8        0    0.0000
     50 C         139.1052  106.0996  100.3979 C.3       8        0    0.0000
     51 H         140.3128  105.0987  101.8964 H         8        0    0.0000
     52 H         138.6248  104.6000  101.8898 H         8        0    0.0000
     53 H         138.0592  106.3974  100.2541 H         8        0    0.0000
     54 H         139.7066  107.0138  100.3195 H         8        0    0.0000
     55 C         139.5162  105.1237   99.2420 C.3       9        0    0.0000
     56 C         139.2784  105.7324   97.8557 C.3       9        0    0.0000
     57 H         140.5747  104.8608   99.3608 H         9        0    0.0000
     58 H         138.9465  104.1920   99.3465 H         9        0    0.0000
     59 H         138.2226  106.0081   97.7420 H         9        0    0.0000
     60 H         139.8589  106.6568   97.7461 H         9        0    0.0000
     61 C         139.6711  104.7491   96.6997 C.3      10        0    0.0000
     62 C         139.4265  105.3552   95.3134 C.3      10        0    0.0000
     63 H         140.7282  104.4775   96.8103 H        10        0    0.0000
     64 H         139.0943  103.8227   96.8123 H        10        0    0.0000
     65 H         138.3697  105.6282   95.2033 H        10        0    0.0000
     66 H         140.0044  106.2808   95.2002 H        10        0    0.0000
     67 C         139.8172  104.3710   94.1574 C.3      11        0    0.0000
     68 C         139.5801  104.9801   92.7711 C.3      11        0    0.0000
     69 H         140.8725  104.0935   94.2708 H        11        0    0.0000
     70 H         139.2350  103.4477   94.2672 H        11        0    0.0000
     71 H         138.5251  105.2592   92.6583 H        11        0    0.0000
     72 H         140.1635  105.9025   92.6607 H        11        0    0.0000
     73 C         139.9685  103.9951   91.6151 C.3      12        0    0.0000
     74 C         139.7322  104.6045   90.2288 C.3      12        0    0.0000
     75 H         141.0233  103.7155   91.7282 H        12        0    0.0000
     76 H         139.3846  103.0729   91.7251 H        12        0    0.0000
     77 H         138.6779  104.8860   90.1164 H        12        0    0.0000
     78 H         140.3177  105.5256   90.1180 H        12        0    0.0000
     79 C         140.1180  103.6184   89.0727 C.3      13        0    0.0000
     80 C         139.8794  104.2269   87.6864 C.3      13        0    0.0000
     81 H         141.1728  103.3383   89.1841 H        13        0    0.0000
     82 H         139.5337  102.6966   89.1845 H        13        0    0.0000
     83 H         138.8252  104.5097   87.5761 H        13        0    0.0000
     84 H         140.4659  105.1472   87.5736 H        13        0    0.0000
     85 C         140.2613  103.2394   86.5304 C.3      14        0    0.0000
     86 C         140.0185  103.8463   85.1441 C.3      14        0    0.0000
     87 H         141.3164  102.9592   86.6389 H        14        0    0.0000
     88 H         139.6772  102.3179   86.6452 H        14        0    0.0000
     89 H         138.9652  104.1343   85.0388 H        14        0    0.0000
     90 H         140.6091  104.7632   85.0262 H        14        0    0.0000
     91 C         140.3892  102.8544   83.9882 C.3      15        0    0.0000
     92 C         140.1722  103.4709   82.6019 C.3      15        0    0.0000
     93 H         141.4369  102.5508   84.1050 H        15        0    0.0000
     94 H         139.7841  101.9455   84.0945 H        15        0    0.0000
     95 H         139.1023  103.6418   82.4294 H        15        0    0.0000
     96 H         140.6609  104.4515   82.5456 H        15        0    0.0000
     97 C         140.7303  102.5616   81.4533 C.3      16        0    0.0000
     98 C         140.6191  103.2291   80.0781 C.3      16        0    0.0000
     99 H         141.7781  102.3204   81.6708 H        16        0    0.0000
    100 H         140.1813  101.6118   81.4559 H        16        0    0.0000
    101 H         139.5678  103.4402   79.8463 H        16        0    0.0000
    102 H         141.1402  104.1945   80.0854 H        16        0    0.0000
    103 C         141.2197  102.3394   78.9356 C.3      17        0    0.0000
    104 C         140.2596  102.1899   77.7503 C.3      17        0    0.0000
    105 H         142.1646  102.7846   78.6005 H        17        0    0.0000
    106 H         141.4650  101.3527   79.3477 H        17        0    0.0000
    107 H         139.2336  102.4158   78.0665 H        17        0    0.0000
    108 H         140.5142  102.9138   76.9664 H        17        0    0.0000
    109 C         140.2933  100.7478   77.1367 C.3      18        0    0.0000
    110 C         141.2559  100.6445   75.9485 C.3      18        0    0.0000
    111 H         140.5847  100.0370   77.9199 H        18        0    0.0000
    112 H         139.2784  100.4729   76.8237 H        18        0    0.0000
    113 H         140.7987  100.0548   75.1442 H        18        0    0.0000
    114 H         141.4521  101.6417   75.5356 H        18        0    0.0000
    115 C         142.6211   99.9844   76.3457 C.3      19        0    0.0000
    116 C         142.9170   98.7237   75.5258 C.3      19        0    0.0000
    117 H         143.4231  100.7200   76.2071 H        19        0    0.0000
    118 H         142.5983   99.7409   77.4151 H        19        0    0.0000
    119 H         142.3244   98.7277   74.6026 H        19        0    0.0000
    120 H         143.9715   98.7106   75.2233 H        19        0    0.0000
    121 C         142.6034   97.4101   76.3219 C.3      20        0    0.0000
    122 C         141.7165   96.4463   75.5260 C.3      20        0    0.0000
    123 H         143.5497   96.9210   76.5840 H        20        0    0.0000
    124 H         142.1147   97.6775   77.2670 H        20        0    0.0000
    125 H         140.9807   97.0099   74.9390 H        20        0    0.0000
    126 H         142.3245   95.8805   74.8092 H        20        0    0.0000
    127 C         140.9565   95.4356   76.4525 C.3      21        0    0.0000
    128 C         140.9669   94.0104   75.8891 C.3      21        0    0.0000
    129 H         141.4198   95.4505   77.4469 H        21        0    0.0000
    130 H         139.9235   95.7818   76.5811 H        21        0    0.0000
    131 H         140.1262   93.8730   75.1978 H        21        0    0.0000
    132 H         141.8826   93.8419   75.3089 H        21        0    0.0000
    133 C         140.8764   92.9251   77.0167 C.3      22        0    0.0000
    134 C         140.8999   91.4996   76.4541 C.3      22        0    0.0000
    135 H         141.7117   93.0684   77.7133 H        22        0    0.0000
    136 H         139.9559   93.0877   77.5909 H        22        0    0.0000
    137 H         140.9898   90.7739   77.2720 H        22        0    0.0000
    138 H         139.9545   91.2816   75.9420 H        22        0    0.0000
    139 C         142.0821   91.2771   75.4490 C.3      23        0    0.0000
    140 C         141.9439   89.9636   74.6713 C.3      23        0    0.0000
    141 H         142.1186   92.1242   74.7529 H        23        0    0.0000
    142 H         143.0269   91.2865   76.0065 H        23        0    0.0000
    143 H         142.7764   89.8552   73.9651 H        23        0    0.0000
    144 H         142.0017   89.1112   75.3595 H        23        0    0.0000
    145 C         140.5943   89.8820   73.8780 C.3      24        0    0.0000
    146 C         140.4242   88.5399   73.1577 C.3      24        0    0.0000
    147 H         139.7635   90.0420   74.5763 H        24        0    0.0000
    148 H         140.5598   90.7049   73.1534 H        24        0    0.0000
    149 H         141.2298   88.4009   72.4260 H        24        0    0.0000
    150 H         140.5052   87.7145   73.8758 H        24        0    0.0000
    151 C         139.0461   88.4329   72.4183 C.3      25        0    0.0000
    152 C         138.9173   87.1343   71.6146 C.3      25        0    0.0000
    153 H         138.2407   88.4975   73.1604 H        25        0    0.0000
    154 H         138.9328   89.2989   71.7544 H        25        0    0.0000
    155 H         138.9243   86.2708   72.2913 H        25        0    0.0000
    156 H         137.9562   87.1126   71.0862 H        25        0    0.0000
    157 C         140.0728   86.9658   70.5687 C.3      26        0    0.0000
    158 C         139.8553   85.7566   69.6525 C.3      26        0    0.0000
    159 H         140.1449   87.8827   69.9707 H        26        0    0.0000
    160 H         141.0240   86.8645   71.1059 H        26        0    0.0000
    161 H         140.0266   84.8270   70.2094 H        26        0    0.0000
    162 H         138.8146   85.7292   69.3065 H        26        0    0.0000
    163 C         140.8026   85.7793   68.4037 C.3      27        0    0.0000
    164 C         140.5818   84.5725   67.4851 C.3      27        0    0.0000
    165 H         140.6338   86.7104   67.8487 H        27        0    0.0000
    166 H         141.8434   85.8032   68.7498 H        27        0    0.0000
    167 H         140.7932   83.6429   68.0279 H        27        0    0.0000
    168 H         139.5308   84.5237   67.1742 H        27        0    0.0000
    169 C         141.4853   84.6269   66.2052 C.3      28        0    0.0000
    170 C         141.1235   83.5354   65.1919 C.3      28        0    0.0000
    171 H         141.3851   85.6170   65.7434 H        28        0    0.0000
    172 H         142.5347   84.5256   66.5086 H        28        0    0.0000
    173 H         141.3047   82.5443   65.6259 H        28        0    0.0000
    174 H         140.0539   83.5838   64.9528 H        28        0    0.0000
    175 C         141.9447   83.6629   63.8627 C.3      29        0    0.0000
    176 C         141.6191   82.5423   62.8691 C.3      29        0    0.0000
    177 H         141.7350   84.6399   63.4098 H        29        0    0.0000
    178 H         143.0145   83.6513   64.1055 H        29        0    0.0000
    179 H         140.6057   82.6754   62.4708 H        29        0    0.0000
    180 H         142.3029   82.5887   62.0125 H        29        0    0.0000
    181 C         141.7228   81.1208   63.5219 C.3      30        0    0.0000
    182 C         141.2108   80.0156   62.5916 C.3      30        0    0.0000
    183 H         142.7692   80.9309   63.7913 H        30        0    0.0000
    184 H         141.1512   81.1191   64.4582 H        30        0    0.0000
    185 H         140.1268   79.8959   62.7107 H        30        0    0.0000
    186 H         141.3838   80.2949   61.5449 H        30        0    0.0000
    187 C         141.9048   78.6374   62.8681 C.3      31        0    0.0000
    188 C         141.6063   77.6068   61.7736 C.3      31        0    0.0000
    189 H         142.9872   78.7967   62.9497 H        31        0    0.0000
    190 H         141.5675   78.2607   63.8416 H        31        0    0.0000
    191 H         140.5484   77.3183   61.8071 H        31        0    0.0000
    192 H         141.7815   78.0473   60.7843 H        31        0    0.0000
    193 C         142.4866   76.3175   61.9157 C.3      32        0    0.0000
    194 C         142.8854   75.7337   60.5558 C.3      32        0    0.0000
    195 H         143.3837   76.5641   62.4969 H        32        0    0.0000
    196 H         141.9300   75.5716   62.4966 H        32        0    0.0000
    197 H         142.0253   75.2326   60.0947 H        32        0    0.0000
    198 H         143.1835   76.5393   59.8735 H        32        0    0.0000
    199 C         144.0650   74.7079   60.6725 C.3      33        0    0.0000
    200 C         144.6690   74.3595   59.3077 C.3      33        0    0.0000
    201 H         144.8365   75.1294   61.3288 H        33        0    0.0000
    202 H         143.6958   73.7990   61.1636 H        33        0    0.0000
    203 H         143.9298   73.8310   58.6930 H        33        0    0.0000
    204 H         144.9302   75.2774   58.7666 H        33        0    0.0000
    205 C         145.9509   73.4664   59.4358 C.3      34        0    0.0000
    206 C         146.8166   73.5081   58.1717 C.3      34        0    0.0000
    207 H         146.5330   73.8055   60.3017 H        34        0    0.0000
    208 H         145.6435   72.4348   59.6473 H        34        0    0.0000
    209 H         146.3153   72.9744   57.3547 H        34        0    0.0000
    210 H         146.9456   74.5452   57.8381 H        34        0    0.0000
    211 C         148.2307   72.8708   58.3988 C.3      35        0    0.0000
    212 C         149.3328   73.6162   57.6379 C.3      35        0    0.0000
    213 H         148.4499   72.8704   59.4737 H        35        0    0.0000
    214 H         148.2001   71.8205   58.0832 H        35        0    0.0000
    215 H         149.2603   73.4012   56.5646 H        35        0    0.0000
    216 H         149.2018   74.6994   57.7518 H        35        0    0.0000
    217 C         150.7670   73.2255   58.1358 C.3      36        0    0.0000
    218 C         151.8709   73.8655   57.2867 C.3      36        0    0.0000
    219 H         150.8731   73.5320   59.1838 H        36        0    0.0000
    220 H         150.8628   72.1328   58.1158 H        36        0    0.0000
    221 H         151.7159   73.6278   56.2270 H        36        0    0.0000
    222 H         151.8271   74.9582   57.3743 H        36        0    0.0000
    223 C         153.3010   73.3818   57.7091 C.3      37        0    0.0000
    224 C         154.3855   73.8552   56.7351 C.3      37        0    0.0000
    225 H         153.5153   73.7516   58.7194 H        37        0    0.0000
    226 H         153.3006   72.2863   57.7681 H        37        0    0.0000
    227 H         154.2472   74.9192   56.5063 H        37        0    0.0000
    228 H         155.3753   73.7586   57.1983 H        37        0    0.0000
    229 C         154.3742   73.0444   55.3935 C.3      38        0    0.0000
    230 C         155.4871   73.4876   54.4375 C.3      38        0    0.0000
    231 H         154.4796   71.9771   55.6244 H        38        0    0.0000
    232 H         153.3952   73.1677   54.9140 H        38        0    0.0000
    233 H         155.1801   74.3910   53.8959 H        38        0    0.0000
    234 H         156.3878   73.7516   55.0053 H        38        0    0.0000
    235 C         155.8542   72.3746   53.3964 C.3      39        0    0.0000
    236 C         157.1687   72.6727   52.6667 C.3      39        0    0.0000
    237 H         155.9233   71.4118   53.9176 H        39        0    0.0000
    238 H         155.0347   72.2831   52.6728 H        39        0    0.0000
    239 H         157.0762   73.6007   52.0890 H        39        0    0.0000
    240 H         157.9745   72.8331   53.3937 H        39        0    0.0000
    241 C         157.5862   71.5135   51.6973 C.3      40        0    0.0000
    242 C         158.2941   72.0333   50.4413 C.3      40        0    0.0000
    243 H         158.2410   70.8190   52.2380 H        40        0    0.0000
    244 H         156.6895   70.9472   51.4166 H        40        0    0.0000
    245 H         157.7394   72.8812   50.0205 H        40        0    0.0000
    246 H         159.2925   72.4072   50.6998 H        40        0    0.0000
    247 C         158.4382   70.9272   49.3398 C.3      41        0    0.0000
    248 C         159.2282   71.4195   48.1222 C.3      41        0    0.0000
    249 H         158.9323   70.0522   49.7800 H        41        0    0.0000
    250 H         157.4367   70.6020   49.0321 H        41        0    0.0000
    251 H         158.7368   72.2975   47.6849 H        41        0    0.0000
    252 H         160.2314   71.7402   48.4292 H        41        0    0.0000
    253 C         159.3665   70.3155   47.0178 C.3      42        0    0.0000
    254 C         160.1500   70.8102   45.7969 C.3      42        0    0.0000
    255 H         159.8629   69.4396   47.4537 H        42        0    0.0000
    256 H         158.3634   69.9908   46.7148 H        42        0    0.0000
    257 H         161.2128   70.9133   46.0485 H        42        0    0.0000
    258 H         160.0881   70.0734   44.9865 H        42        0    0.0000
    259 C         159.6198   72.1877   45.2691 C.3      43        0    0.0000
    260 C         160.5786   72.8317   44.2616 C.3      43        0    0.0000
    261 H         158.6363   72.0347   44.8076 H        43        0    0.0000
    262 H         159.4659   72.8583   46.1235 H        43        0    0.0000
    263 H         160.0110   73.2907   43.4426 H        43        0    0.0000
    264 H         161.1444   73.6386   44.7436 H        43        0    0.0000
    265 C         161.5893   71.7966   43.6580 C.3      44        0    0.0000
    266 C         162.5867   72.4516   42.6962 C.3      44        0    0.0000
    267 H         162.1258   71.3058   44.4796 H        44        0    0.0000
    268 H         161.0245   71.0128   43.1380 H        44        0    0.0000
    269 H         163.3399   73.0145   43.2613 H        44        0    0.0000
    270 H         163.1269   71.6811   42.1322 H        44        0    0.0000
    271 C         161.8860   73.4213   41.6832 C.3      45        0    0.0000
    272 C         162.8951   74.2146   40.8457 C.3      45        0    0.0000
    273 H         161.2314   72.8344   41.0270 H        45        0    0.0000
    274 H         161.2382   74.1082   42.2417 H        45        0    0.0000
    275 H         162.4254   74.5562   39.9150 H        45        0    0.0000
    276 H         163.2096   75.1145   41.3887 H        45        0    0.0000
    277 C         164.1663   73.3693   40.4895 C.3      46        0    0.0000
    278 C         165.1242   74.1238   39.5610 C.3      46        0    0.0000
    279 H         164.6809   73.0957   41.4190 H        46        0    0.0000
    280 H         163.8468   72.4314   40.0186 H        46        0    0.0000
    281 H         165.5701   74.9744   40.0913 H        46        0    0.0000
    282 H         165.9525   73.4693   39.2626 H        46        0    0.0000
    283 C         164.4077   74.6523   38.2706 C.3      47        0    0.0000
    284 C         165.3073   75.5783   37.4447 C.3      47        0    0.0000
    285 H         164.0935   73.7939   37.6640 H        47        0    0.0000
    286 H         163.4931   75.1813   38.5656 H        47        0    0.0000
    287 H         164.8676   75.7439   36.4533 H        47        0    0.0000
    288 H         165.3781   76.5615   37.9261 H        47        0    0.0000
    289 C         166.7526   74.9981   37.2658 C.3      48        0    0.0000
    290 C         167.6138   75.8604   36.3364 C.3      48        0    0.0000
    291 H         167.2265   74.9192   38.2521 H        48        0    0.0000
    292 H         166.6775   73.9777   36.8699 H        48        0    0.0000
    293 H         167.8216   76.8291   36.8074 H        48        0    0.0000
    294 H         168.5843   75.3776   36.1675 H        48        0    0.0000
    295 C         166.9254   76.1097   34.9503 C.3      49        0    0.0000
    296 C         167.6949   77.1209   34.0932 C.3      49        0    0.0000
    297 H         166.8422   75.1532   34.4196 H        49        0    0.0000
    298 H         165.9017   76.4645   35.1226 H        49        0    0.0000
    299 H         167.2607   77.1684   33.0868 H        49        0    0.0000
    300 H         167.6030   78.1258   34.5237 H        49        0    0.0000
    301 C         169.2156   76.7606   33.9709 C.3      50        0    0.0000
    302 C         169.9593   77.6975   33.0126 C.3      50        0    0.0000
    303 H         169.6706   76.8042   34.9682 H        50        0    0.0000
    304 H         169.3066   75.7225   33.6282 H        50        0    0.0000
    305 H         170.0050   78.7088   33.4352 H        50        0    0.0000
    306 H         170.9960   77.3614   32.8869 H        50        0    0.0000
    307 C         169.2770   77.7692   31.6031 C.3      51        0    0.0000
    308 C         169.9096   78.8383   30.7053 C.3      51        0    0.0000
    309 H         169.3499   76.7848   31.1244 H        51        0    0.0000
    310 H         168.2080   77.9756   31.7378 H        51        0    0.0000
    311 H         169.5076   78.7607   29.6875 H        51        0    0.0000
    312 H         169.6492   79.8391   31.0714 H        51        0    0.0000
    313 C         171.4710   78.7136   30.6428 C.3      52        0    0.0000
    314 C         172.0911   79.6834   29.6309 C.3      52        0    0.0000
    315 H         171.8810   78.9006   31.6430 H        52        0    0.0000
    316 H         171.7331   77.6805   30.3830 H        52        0    0.0000
    317 H         171.9552   80.7181   29.9695 H        52        0    0.0000
    318 H         173.1728   79.5141   29.5617 H        52        0    0.0000
    319 C         171.4636   79.5328   28.2022 C.3      53        0    0.0000
    320 C         172.0703   80.5157   27.1948 C.3      53        0    0.0000
    321 H         171.6117   78.5018   27.8578 H        53        0    0.0000
    322 H         170.3800   79.6885   28.2738 H        53        0    0.0000
    323 H         171.7442   80.2619   26.1785 H        53        0    0.0000
    324 H         171.7097   81.5319   27.3968 H        53        0    0.0000
    325 C         173.6374   80.5179   27.2369 C.3      54        0    0.0000
    326 C         174.2445   81.4858   26.2152 C.3      54        0    0.0000
    327 H         173.9635   80.7864   28.2493 H        54        0    0.0000
    328 H         173.9976   79.4988   27.0497 H        54        0    0.0000
    329 H         174.0691   82.5224   26.5287 H        54        0    0.0000
    330 H         175.3322   81.3504   26.1690 H        54        0    0.0000
    331 C         173.6487   81.2846   24.7793 C.3      55        0    0.0000
    332 C         174.2959   82.2137   23.7464 C.3      55        0    0.0000
    333 H         173.7873   80.2376   24.4825 H        55        0    0.0000
    334 H         172.5665   81.4605   24.8176 H        55        0    0.0000
    335 H         173.7171   82.2016   22.8146 H        55        0    0.0000
    336 H         174.2839   83.2482   24.1113 H        55        0    0.0000
    337 C         175.7760   81.8077   23.4271 C.3      56        0    0.0000
    338 C         176.4153   82.7220   22.3762 C.3      56        0    0.0000
    339 H         176.3590   81.8372   24.3559 H        56        0    0.0000
    340 H         175.7901   80.7674   23.0792 H        56        0    0.0000
    341 H         175.6628   83.0344   21.6416 H        56        0    0.0000
    342 H         176.7903   83.6368   22.8515 H        56        0    0.0000
    343 C         177.5984   82.0232   21.6215 C.3      57        0    0.0000
    344 C         178.9644   82.5708   22.0495 C.3      57        0    0.0000
    345 H         177.5499   80.9437   21.8105 H        57        0    0.0000
    346 H         177.4595   82.1606   20.5420 H        57        0    0.0000
    347 H         179.6589   82.5549   21.2004 H        57        0    0.0000
    348 H         178.8693   83.6189   22.3591 H        57        0    0.0000
    349 C         179.5903   81.7501   23.2295 C.3      58        0    0.0000
    350 C         181.0546   81.3811   22.9679 C.3      58        0    0.0000
    351 H         179.5098   82.3391   24.1516 H        58        0    0.0000
    352 H         178.9949   80.8415   23.3831 H        58        0    0.0000
    353 H         181.4802   82.0470   22.2070 H        58        0    0.0000
    354 H         181.6475   81.5249   23.8796 H        58        0    0.0000
    355 C         181.2168   79.8974   22.4885 C.3      59        0    0.0000
    356 C         182.0946   79.0732   23.4368 C.3      59        0    0.0000
    357 H         180.2223   79.4419   22.4053 H        59        0    0.0000
    358 H         181.6489   79.8968   21.4801 H        59        0    0.0000
    359 H         182.7793   78.4392   22.8600 H        59        0    0.0000
    360 H         182.7191   79.7390   24.0454 H        59        0    0.0000
    361 C         181.2467   78.1635   24.3913 C.3      60        0    0.0000
    362 C         181.7605   76.7200   24.4258 C.3      60        0    0.0000
    363 H         181.2666   78.5941   25.4001 H        60        0    0.0000
    364 H         180.2007   78.1827   24.0611 H        60        0    0.0000
    365 H         182.2692   76.4791   23.4841 H        60        0    0.0000
    366 H         182.5041   76.6043   25.2241 H        60        0    0.0000
    367 C         180.6067   75.6840   24.6562 C.3      61        0    0.0000
    368 C         180.8662   74.7862   25.8709 C.3      61        0    0.0000
    369 H         179.6632   76.2286   24.7856 H        61        0    0.0000
    370 H         180.4957   75.0717   23.7527 H        61        0    0.0000
    371 H         181.6533   74.0580   25.6392 H        61        0    0.0000
    372 H         181.2314   75.3880   26.7123 H        61        0    0.0000
    373 C         179.5799   74.0129   26.3236 C.3      62        0    0.0000
    374 C         179.9137   72.7007   27.0419 C.3      62        0    0.0000
    375 H         178.9900   74.6626   26.9820 H        62        0    0.0000
    376 H         178.9595   73.8116   25.4415 H        62        0    0.0000
    377 H         180.6177   72.1116   26.4412 H        62        0    0.0000
    378 H         180.4126   72.9106   27.9961 H        62        0    0.0000
    379 C         178.6373   71.8338   27.3190 C.3      63        0    0.0000
    380 C         178.9656   70.5421   28.0758 C.3      63        0    0.0000
    381 H         177.9199   72.4338   27.8925 H        63        0    0.0000
    382 H         178.1560   71.5971   26.3620 H        63        0    0.0000
    383 H         179.6760   69.9378   27.4981 H        63        0    0.0000
    384 H         179.4550   70.7784   29.0287 H        63        0    0.0000
    385 C         177.6876   69.6813   28.3641 C.3      64        0    0.0000
    386 C         178.0272   68.3401   29.0237 C.3      64        0    0.0000
    387 H         177.0115   70.2568   29.0084 H        64        0    0.0000
    388 H         177.1549   69.5119   27.4200 H        64        0    0.0000
    389 H         178.9367   67.9205   28.5763 H        64        0    0.0000
    390 H         178.2400   68.4884   30.0896 H        64        0    0.0000
    391 C         176.8660   67.2968   28.8807 C.3      65        0    0.0000
    392 C         177.2824   65.8969   29.3455 C.3      65        0    0.0000
    393 H         176.0038   67.6454   29.4626 H        65        0    0.0000
    394 H         176.5462   67.2652   27.8317 H        65        0    0.0000
    395 H         178.3683   65.7756   29.2476 H        65        0    0.0000
    396 H         177.0455   65.7677   30.4088 H        65        0    0.0000
    397 C         176.5717   64.7637   28.5281 C.3      66        0    0.0000
    398 C         177.1041   63.3708   28.8823 C.3      66        0    0.0000
    399 H         175.4925   64.8136   28.7190 H        66        0    0.0000
    400 H         176.7116   64.9588   27.4577 H        66        0    0.0000
    401 H         178.1888   63.3311   28.7232 H        66        0    0.0000
    402 H         176.9338   63.1622   29.9458 H        66        0    0.0000
    403 C         176.4269   62.2418   28.0313 C.3      67        0    0.0000
    404 C         176.7726   60.8401   28.5458 C.3      67        0    0.0000
    405 H         175.3401   62.3908   28.0470 H        67        0    0.0000
    406 H         176.7444   62.3479   26.9866 H        67        0    0.0000
    407 H         177.8502   60.6588   28.4486 H        67        0    0.0000
    408 H         176.5353   60.7624   29.6141 H        67        0    0.0000
    409 C         175.9995   59.7162   27.7734 C.3      68        0    0.0000
    410 C         176.1867   58.3367   28.4143 C.3      68        0    0.0000
    411 H         174.9340   59.9760   27.7443 H        68        0    0.0000
    412 H         176.3478   59.6982   26.7333 H        68        0    0.0000
    413 H         177.2255   58.0045   28.2952 H        68        0    0.0000
    414 H         175.9960   58.3941   29.4931 H        68        0    0.0000
    415 C         175.2364   57.2576   27.7899 C.3      69        0    0.0000
    416 C         175.2018   55.9666   28.6154 C.3      69        0    0.0000
    417 H         174.2270   57.6796   27.7092 H        69        0    0.0000
    418 H         175.5703   57.0414   26.7675 H        69        0    0.0000
    419 H         175.2303   55.0943   27.9507 H        69        0    0.0000
    420 H         176.0913   55.9049   29.2545 H        69        0    0.0000
    421 C         173.9235   55.8727   29.5180 C.3      70        0    0.0000
    422 C         173.8310   54.5327   30.2562 C.3      70        0    0.0000
    423 H         173.9383   56.6992   30.2391 H        70        0    0.0000
    424 H         173.0358   56.0182   28.8900 H        70        0    0.0000
    425 H         173.7318   53.7120   29.5351 H        70        0    0.0000
    426 H         174.7550   54.3483   30.8182 H        70        0    0.0000
    427 C         172.6180   54.4834   31.2480 C.3      71        0    0.0000
    428 C         172.3851   53.0771   31.8113 C.3      71        0    0.0000
    429 H         172.8012   55.1908   32.0662 H        71        0    0.0000
    430 H         171.7191   54.8326   30.7249 H        71        0    0.0000
    431 H         172.3047   52.3522   30.9919 H        71        0    0.0000
    432 H         173.2435   52.7693   32.4212 H        71        0    0.0000
    433 C         171.0877   52.9954   32.6873 C.3      72        0    0.0000
    434 C         170.2428   51.7592   32.3601 C.3      72        0    0.0000
    435 H         171.3758   52.9846   33.7458 H        72        0    0.0000
    436 H         170.4973   53.9067   32.5308 H        72        0    0.0000
    437 H         170.3187   51.5239   31.2912 H        72        0    0.0000
    438 H         170.6269   50.8866   32.9028 H        72        0    0.0000
    439 C         168.7319   51.9580   32.7277 C.3      73        0    0.0000
    440 C         168.2940   51.0606   33.8905 C.3      73        0    0.0000
    441 H         168.5657   53.0120   32.9827 H        73        0    0.0000
    442 H         168.1216   51.7485   31.8404 H        73        0    0.0000
    443 H         167.9149   50.1055   33.5064 H        73        0    0.0000
    444 H         169.1550   50.8243   34.5281 H        73        0    0.0000
    445 C         167.1819   51.7287   34.7703 C.3      74        0    0.0000
    446 C         165.7749   51.2609   34.3820 C.3      74        0    0.0000
    447 H         167.3779   51.4965   35.8245 H        74        0    0.0000
    448 H         167.2574   52.8184   34.6685 H        74        0    0.0000
    449 H         165.7826   50.8494   33.3651 H        74        0    0.0000
    450 H         165.4510   50.4508   35.0472 H        74        0    0.0000
    451 C         164.7232   52.4213   34.4497 C.3      75        0    0.0000
    452 C         163.8806   52.5168   33.1730 C.3      75        0    0.0000
    453 H         164.0730   52.2591   35.3183 H        75        0    0.0000
    454 H         165.2510   53.3672   34.6237 H        75        0    0.0000
    455 H         164.3969   52.0180   32.3434 H        75        0    0.0000
    456 H         162.9271   51.9923   33.3115 H        75        0    0.0000
    457 C         163.5861   54.0015   32.7651 C.3      76        0    0.0000
    458 C         162.2603   54.5102   33.3418 C.3      76        0    0.0000
    459 H         164.4136   54.6338   33.1101 H        76        0    0.0000
    460 H         163.5715   54.0713   31.6704 H        76        0    0.0000
    461 H         161.7179   55.0890   32.5840 H        76        0    0.0000
    462 H         161.6174   53.6629   33.6109 H        76        0    0.0000
    463 C         162.4695   55.4083   34.6095 C.3      77        0    0.0000
    464 C         161.8205   56.7884   34.4571 C.3      77        0    0.0000
    465 H         162.0524   54.8908   35.4823 H        77        0    0.0000
    466 H         163.5458   55.5169   34.7922 H        77        0    0.0000
    467 H         161.7862   57.0731   33.3982 H        77        0    0.0000
    468 H         160.7818   56.7565   34.8086 H        77        0    0.0000
    469 C         162.5896   57.8979   35.2540 C.3      78        0    0.0000
    470 C         161.7455   59.1617   35.4518 C.3      78        0    0.0000
    471 H         162.8903   57.4902   36.2271 H        78        0    0.0000
    472 H         163.5137   58.1432   34.7160 H        78        0    0.0000
    473 H         162.3623   59.9635   35.8763 H        78        0    0.0000
    474 H         161.3794   59.5249   34.4835 H        78        0    0.0000
    475 C         160.5184   58.9148   36.3956 C.3      79        0    0.0000
    476 C         159.5735   60.1204   36.4473 C.3      79        0    0.0000
    477 H         159.9767   58.0270   36.0464 H        79        0    0.0000
    478 H         160.8876   58.6828   37.4023 H        79        0    0.0000
    479 H         160.0106   60.9147   37.0650 H        79        0    0.0000
    480 H         159.4427   60.5393   35.4418 H        79        0    0.0000
    481 C         158.1653   59.7472   37.0262 C.3      80        0    0.0000
    482 C         157.8216   60.5541   38.2832 C.3      80        0    0.0000
    483 H         157.4078   59.9176   36.2511 H        80        0    0.0000
    484 H         158.1490   58.6738   37.2522 H        80        0    0.0000
    485 H         158.7415   60.8802   38.7841 H        80        0    0.0000
    486 H         157.2733   61.4637   38.0081 H        80        0    0.0000
    487 C         156.9573   59.7311   39.2996 C.3      81        0    0.0000
    488 C         155.4715   60.1011   39.2316 C.3      81        0    0.0000
    489 H         157.0887   58.6621   39.0911 H        81        0    0.0000
    490 H         157.3421   59.9041   40.3123 H        81        0    0.0000
    491 H         155.2293   60.8305   40.0144 H        81        0    0.0000
    492 H         155.2474   60.5829   38.2718 H        81        0    0.0000
    493 C         154.5398   58.8516   39.3995 C.3      82        0    0.0000
    494 C         153.3571   58.8737   38.4250 C.3      82        0    0.0000
    495 H         155.1358   57.9431   39.2473 H        82        0    0.0000
    496 H         154.1747   58.8192   40.4335 H        82        0    0.0000
    497 H         152.5809   59.5571   38.7909 H        82        0    0.0000
    498 H         153.6806   59.2577   37.4496 H        82        0    0.0000
    499 C         152.7259   57.4528   38.2245 C.3      83        0    0.0000
    500 C         151.4709   57.4935   37.3455 C.3      83        0    0.0000
    501 H         153.4779   56.7918   37.7761 H        83        0    0.0000
    502 H         152.4827   57.0320   39.2080 H        83        0    0.0000
    503 H         150.8150   58.3132   37.6641 H        83        0    0.0000
    504 H         151.7478   57.6982   36.3039 H        83        0    0.0000
    505 C         150.6641   56.1506   37.3994 C.3      84        0    0.0000
    506 C         149.3238   56.2482   36.6623 C.3      84        0    0.0000
    507 H         151.2766   55.3523   36.9621 H        84        0    0.0000
    508 H         150.4971   55.8802   38.4494 H        84        0    0.0000
    509 H         148.8616   57.2253   36.8500 H        84        0    0.0000
    510 H         149.4842   56.1785   35.5792 H        84        0    0.0000
    511 C         148.3227   55.1235   37.0983 C.3      85        0    0.0000
    512 C         146.8611   55.5705   36.9839 C.3      85        0    0.0000
    513 H         148.4946   54.2365   36.4761 H        85        0    0.0000
    514 H         148.5470   54.8316   38.1317 H        85        0    0.0000
    515 H         146.7356   56.5643   37.4311 H        85        0    0.0000
    516 H         146.5773   55.6621   35.9281 H        85        0    0.0000
    517 C         145.8778   54.5722   37.6867 C.3      86        0    0.0000
    518 C         144.6761   55.2863   38.3151 C.3      86        0    0.0000
    519 H         145.5345   53.8360   36.9494 H        86        0    0.0000
    520 H         146.4285   54.0155   38.4550 H        86        0    0.0000
    521 H         145.0207   56.0658   39.0059 H        86        0    0.0000
    522 H         144.0897   55.7913   37.5375 H        86        0    0.0000
    523 C         143.7392   54.2996   39.0937 C.3      87        0    0.0000
    524 C         142.3870   54.9332   39.4390 C.3      87        0    0.0000
    525 H         143.5884   53.4000   38.4841 H        87        0    0.0000
    526 H         144.2486   53.9773   40.0102 H        87        0    0.0000
    527 H         142.5380   55.8356   40.0442 H        87        0    0.0000
    528 H         141.8753   55.2508   38.5221 H        87        0    0.0000
    529 C         141.4529   53.9489   40.2239 C.3      88        0    0.0000
    530 C         140.2256   54.6557   40.8098 C.3      88        0    0.0000
    531 H         141.1367   53.1457   39.5467 H        88        0    0.0000
    532 H         142.0325   53.4749   41.0257 H        88        0    0.0000
    533 H         140.5144   55.6299   41.2235 H        88        0    0.0000
    534 H         139.4924   54.8544   40.0184 H        88        0    0.0000
    535 C         139.5362   53.8124   41.9372 C.3      89        0    0.0000
    536 C         138.4351   54.5972   42.6586 C.3      89        0    0.0000
    537 H         139.1184   52.9011   41.4917 H        89        0    0.0000
    538 H         140.3006   53.4902   42.6552 H        89        0    0.0000
    539 H         137.6105   54.8106   41.9672 H        89        0    0.0000
    540 H         138.0151   53.9940   43.4731 H        89        0    0.0000
    541 C         138.9606   55.9501   43.2511 C.3      90        0    0.0000
    542 C         137.8659   56.7224   43.9956 C.3      90        0    0.0000
    543 H         139.7979   55.7384   43.9275 H        90        0    0.0000
    544 H         139.3627   56.5616   42.4338 H        90        0    0.0000
    545 H         138.3016   57.5833   44.5177 H        90        0    0.0000
    546 H         137.1363   57.1235   43.2812 H        90        0    0.0000
    547 C         137.1122   55.8273   45.0388 C.3      91        0    0.0000
    548 C         135.6590   56.2701   45.2416 C.3      91        0    0.0000
    549 H         137.1437   54.7848   44.6985 H        91        0    0.0000
    550 H         137.6532   55.8639   45.9924 H        91        0    0.0000
    551 H         135.5825   56.9167   46.1246 H        91        0    0.0000
    552 H         135.3244   56.8670   44.3841 H        91        0    0.0000
    553 C         134.6866   55.0536   45.4205 C.3      92        0    0.0000
    554 C         133.3717   55.4556   46.0975 C.3      92        0    0.0000
    555 H         134.4839   54.6151   44.4356 H        92        0    0.0000
    556 H         135.1928   54.2802   46.0115 H        92        0    0.0000
    557 H         133.5780   56.0386   47.0037 H        92        0    0.0000
    558 H         132.7887   56.1040   45.4317 H        92        0    0.0000
    559 C         132.4983   54.2126   46.4844 C.3      93        0    0.0000
    560 C         131.2604   54.6034   47.2991 C.3      93        0    0.0000
    561 H         132.1961   53.6934   45.5664 H        93        0    0.0000
    562 H         133.1174   53.5092   47.0549 H        93        0    0.0000
    563 H         131.5610   55.1517   48.2005 H        93        0    0.0000
    564 H         130.6245   55.2809   46.7156 H        93        0    0.0000
    565 C         130.4118   53.3562   47.7257 C.3      94        0    0.0000
    566 C         129.1648   53.7483   48.5258 C.3      94        0    0.0000
    567 H         130.1217   52.8011   46.8250 H        94        0    0.0000
    568 H         131.0442   52.6847   48.3196 H        94        0    0.0000
    569 H         129.4544   54.3101   49.4225 H        94        0    0.0000
    570 H         128.5287   54.4136   47.9290 H        94        0    0.0000
    571 C         128.3221   52.5004   48.9617 C.3      95        0    0.0000
    572 C         127.3496   52.8254   50.1009 C.3      95        0    0.0000
    573 H         127.7698   52.1250   48.0913 H        95        0    0.0000
    574 H         129.0074   51.7006   49.2688 H        95        0    0.0000
    575 H         127.8965   53.2458   50.9539 H        95        0    0.0000
    576 H         126.6336   53.5911   49.7773 H        95        0    0.0000
    577 C         126.5555   51.5625   50.5826 C.3      96        0    0.0000
    578 C         125.4505   51.9180   51.5835 C.3      96        0    0.0000
    579 H         126.1234   51.0614   49.7075 H        96        0    0.0000
    580 H         127.2596   50.8537   51.0358 H        96        0    0.0000
    581 H         125.8932   52.2827   52.5186 H        96        0    0.0000
    582 H         124.8331   52.7341   51.1879 H        96        0    0.0000
    583 C         124.5249   50.6947   51.9059 C.3      97        0    0.0000
    584 C         123.2812   51.1017   52.7038 C.3      97        0    0.0000
    585 H         124.2279   50.2179   50.9635 H        97        0    0.0000
    586 H         125.1045   49.9507   52.4663 H        97        0    0.0000
    587 H         123.0053   50.3031   53.4036 H        97        0    0.0000
    588 H         123.4971   51.9905   53.3094 H        97        0    0.0000
    589 C         122.0545   51.4075   51.7769 C.3      98        0    0.0000
    590 C         120.8697   51.9905   52.5550 C.3      98        0    0.0000
    591 H         122.3697   52.1064   50.9923 H        98        0    0.0000
    592 H         121.7535   50.4814   51.2716 H        98        0    0.0000
    593 H         120.2665   51.1809   52.9841 H        98        0    0.0000
    594 H         121.2325   52.5933   53.3968 H        98        0    0.0000
    595 C         119.9489   52.8836   51.6539 C.3      99        0    0.0000
    596 C         118.7827   53.4934   52.4395 C.3      99        0    0.0000
    597 H         120.5571   53.6789   51.2055 H        99        0    0.0000
    598 H         119.5667   52.2743   50.8255 H        99        0    0.0000
    599 H         117.9143   52.8239   52.4039 H        99        0    0.0000
    600 H         119.0558   53.5992   53.4967 H        99        0    0.0000
    601 C         118.3614   54.8972   51.8834 C.3     100        0    0.0000
    602 C         117.2861   55.5654   52.7475 C.3     100        0    0.0000
    603 H         119.2508   55.5371   51.8282 H       100        0    0.0000
    604 H         117.9964   54.7756   50.8560 H       100        0    0.0000
    605 H         116.5251   56.0300   52.1083 H       100        0    0.0000
    606 H         116.7699   54.8118   53.3550 H       100        0    0.0000
    607 C         117.8833   56.6589   53.6988 C.3     101        0    0.0000
    608 C         116.7942   57.4350   54.4475 C.3     101        0    0.0000
    609 H         118.5592   56.1744   54.4142 H       101        0    0.0000
    610 H         118.4955   57.3486   53.1044 H       101        0    0.0000
    611 H         116.2753   56.7715   55.1505 H       101        0    0.0000
    612 H         117.2465   58.2358   55.0455 H       101        0    0.0000
    613 C         115.7386   58.0654   53.4749 C.3     102        0    0.0000
    614 C         114.5946   58.7544   54.2268 C.3     102        0    0.0000
    615 H         116.2461   58.7851   52.8207 H       102        0    0.0000
    616 H         115.3403   57.2759   52.8255 H       102        0    0.0000
    617 H         113.9366   58.0031   54.6809 H       102        0    0.0000
    618 H         114.9957   59.3600   55.0489 H       102        0    0.0000
    619 C         113.7389   59.6762   53.2911 C.3     103        0    0.0000
    620 C         112.5510   60.3071   54.0259 C.3     103        0    0.0000
    621 H         114.3861   60.4604   52.8794 H       103        0    0.0000
    622 H         113.3825   59.0827   52.4400 H       103        0    0.0000
    623 H         112.0397   59.5504   54.6337 H       103        0    0.0000
    624 H         112.9050   61.0809   54.7184 H       103        0    0.0000
    625 C         111.5146   60.9478   53.0395 C.3     104        0    0.0000
    626 C         110.3123   61.5529   53.7726 C.3     104        0    0.0000
    627 H         112.0210   61.7195   52.4466 H       104        0    0.0000
    628 H         111.1767   60.1792   52.3334 H       104        0    0.0000
    629 H         109.8787   60.8140   54.4578 H       104        0    0.0000
    630 H         110.6353   62.4018   54.3880 H       104        0    0.0000
    631 C         109.1977   62.0406   52.7842 C.3     105        0    0.0000
    632 C         107.9540   62.5536   53.5185 C.3     105        0    0.0000
    633 H         109.6116   62.8321   52.1472 H       105        0    0.0000
    634 H         108.9267   61.2109   52.1196 H       105        0    0.0000
    635 H         107.5946   61.7949   54.2248 H       105        0    0.0000
    636 H         108.2067   63.4414   54.1114 H       105        0    0.0000
    637 C         106.7905   62.9183   52.5332 C.3     106        0    0.0000
    638 C         105.4468   63.0743   53.2537 C.3     106        0    0.0000
    639 H         107.0477   63.8483   52.0112 H       106        0    0.0000
    640 H         106.7180   62.1366   51.7670 H       106        0    0.0000
    641 H         105.2751   62.2191   53.9190 H       106        0    0.0000
    642 H         105.4618   63.9691   53.8882 H       106        0    0.0000
    643 C         104.2453   63.1849   52.2527 C.3     107        0    0.0000
    644 C         102.9032   62.8613   52.9183 C.3     107        0    0.0000
    645 H         104.2239   64.1998   51.8368 H       107        0    0.0000
    646 H         104.4221   62.5033   51.4115 H       107        0    0.0000
    647 H         102.9999   61.9655   53.5441 H       107        0    0.0000
    648 H         102.6066   63.6807   53.5848 H       107        0    0.0000
    649 C         101.7620   62.6244   51.8699 C.3     108        0    0.0000
    650 C         100.4171   62.3130   52.5357 C.3     108        0    0.0000
    651 H         101.6713   63.5168   51.2382 H       108        0    0.0000
    652 H         102.0547   61.7991   51.2090 H       108        0    0.0000
    653 H         100.3815   61.2585   52.8364 H       108        0    0.0000
    654 H         100.3047   62.9059   53.4519 H       108        0    0.0000
    655 C          99.2029   62.6098   51.5895 C.3     109        0    0.0000
    656 C          97.8688   62.6243   52.3438 C.3     109        0    0.0000
    657 H          99.3668   63.5760   51.0965 H       109        0    0.0000
    658 H          99.1788   61.8517   50.7969 H       109        0    0.0000
    659 H          97.5217   61.5976   52.5140 H       109        0    0.0000
    660 H          98.0007   63.0803   53.3328 H       109        0    0.0000
    661 C          96.7567   63.4116   51.5686 C.3     110        0    0.0000
    662 C          95.8880   64.2610   52.5030 C.3     110        0    0.0000
    663 H          97.2351   64.0503   50.8158 H       110        0    0.0000
    664 H          96.1315   62.6946   51.0222 H       110        0    0.0000
    665 H          95.0628   63.6577   52.9012 H       110        0    0.0000
    666 H          96.4785   64.5953   53.3651 H       110        0    0.0000
    667 C          95.2921   65.5182   51.7807 C.3     111        0    0.0000
    668 C          93.8329   65.3097   51.3609 C.3     111        0    0.0000
    669 H          95.3705   66.3821   52.4523 H       111        0    0.0000
    670 H          95.9077   65.7458   50.9015 H       111        0    0.0000
    671 H          93.6042   64.2377   51.3150 H       111        0    0.0000
    672 H          93.1600   65.7435   52.1109 H       111        0    0.0000
    673 C          93.5180   65.9536   49.9667 C.3     112        0    0.0000
    674 C          92.7310   67.2624   50.0959 C.3     112        0    0.0000
    675 H          94.4627   66.1332   49.4387 H       112        0    0.0000
    676 H          92.9522   65.2324   49.3638 H       112        0    0.0000
    677 H          91.6592   67.0718   49.9605 H       112        0    0.0000
    678 H          92.8525   67.6764   51.1046 H       112        0    0.0000
    679 C          93.1892   68.3368   49.0502 C.3     113        0    0.0000
    680 C          92.0236   68.8533   48.1995 C.3     113        0    0.0000
    681 H          93.6635   69.1697   49.5838 H       113        0    0.0000
    682 H          93.9595   67.8963   48.4051 H       113        0    0.0000
    683 H          91.3315   68.0331   47.9720 H       113        0    0.0000
    684 H          91.4511   69.6021   48.7608 H       113        0    0.0000
    685 C          92.5087   69.4932   46.8531 C.3     114        0    0.0000
    686 C          91.5965   69.1311   45.6760 C.3     114        0    0.0000
    687 H          92.5515   70.5827   46.9746 H       114        0    0.0000
    688 H          93.5338   69.1583   46.6516 H       114        0    0.0000
    689 H          91.3544   68.0614   45.7029 H       114        0    0.0000
    690 H          90.6452   69.6715   45.7572 H       114        0    0.0000
    691 C          92.2514   69.4663   44.2918 C.3     115        0    0.0000
    692 C          91.6187   68.6737   43.1427 C.3     115        0    0.0000
    693 H          92.1527   70.5429   44.1053 H       115        0    0.0000
    694 H          93.3262   69.2537   44.3484 H       115        0    0.0000
    695 H          91.5703   67.6088   43.4021 H       115        0    0.0000
    696 H          90.5857   69.0057   42.9807 H       115        0    0.0000
    697 C          92.4162   68.8314   41.8023 C.3     116        0    0.0000
    698 C          91.8394   67.9645   40.6777 C.3     116        0    0.0000
    699 H          92.4050   69.8878   41.5064 H       116        0    0.0000
    700 H          93.4654   68.5657   41.9817 H       116        0    0.0000
    701 H          90.8542   68.3432   40.3784 H       116        0    0.0000
    702 H          92.4821   68.0226   39.7906 H       116        0    0.0000
    703 C          91.6960   66.4616   41.1002 C.3     117        0    0.0000
    704 C          90.9239   65.6380   40.0635 C.3     117        0    0.0000
    705 H          92.6975   66.0384   41.2467 H       117        0    0.0000
    706 H          91.1887   66.4143   42.0718 H       117        0    0.0000
    707 H          90.9376   66.1477   39.0922 H       117        0    0.0000
    708 H          91.4114   64.6663   39.9163 H       117        0    0.0000
    709 C          89.4338   65.3969   40.4866 C.3     118        0    0.0000
    710 C          88.6973   64.4677   39.5153 C.3     118        0    0.0000
    711 H          89.4177   64.9727   41.4982 H       118        0    0.0000
    712 H          88.9210   66.3651   40.5427 H       118        0    0.0000
    713 H          88.9359   64.7405   38.4799 H       118        0    0.0000
    714 H          89.0358   63.4335   39.6546 H       118        0    0.0000
    715 C          87.1423   64.5206   39.7063 C.3     119        0    0.0000
    716 C          86.3956   63.7598   38.6051 C.3     119        0    0.0000
    717 H          86.8923   64.1016   40.6889 H       119        0    0.0000
    718 H          86.8233   65.5702   39.7210 H       119        0    0.0000
    719 H          86.7344   64.0981   37.6181 H       119        0    0.0000
    720 H          86.6243   62.6886   38.6666 H       119        0    0.0000
    721 C          84.8425   63.9511   38.6992 C.3     120        0    0.0000
    722 C          84.0760   62.8585   37.9457 C.3     120        0    0.0000
    723 H          84.5501   63.9548   39.7565 H       120        0    0.0000
    724 H          84.5829   64.9382   38.2971 H       120        0    0.0000
    725 H          84.2011   62.9892   36.8637 H       120        0    0.0000
    726 H          84.4869   61.8718   38.1934 H       120        0    0.0000
    727 C          82.5449   62.8672   38.2821 C.3     121        0    0.0000
    728 C          81.8908   61.5012   38.0472 C.3     121        0    0.0000
    729 H          82.4144   63.1719   39.3279 H       121        0    0.0000
    730 H          82.0523   63.6309   37.6676 H       121        0    0.0000
    731 H          81.8158   61.3001   36.9714 H       121        0    0.0000
    732 H          82.5157   60.7066   38.4734 H       121        0    0.0000
    733 C          80.4589   61.4117   38.6790 C.3     122        0    0.0000
    734 C          79.8614   60.0048   38.5666 C.3     122        0    0.0000
    735 H          80.5178   61.7122   39.7325 H       122        0    0.0000
    736 H          79.8062   62.1386   38.1801 H       122        0    0.0000
    737 H          79.5728   59.8006   37.5280 H       122        0    0.0000
    738 H          80.6136   59.2538   38.8380 H       122        0    0.0000
    739 C          78.6057   59.8174   39.4861 C.3     123        0    0.0000
    740 C          78.0155   58.4067   39.3830 C.3     123        0    0.0000
    741 H          78.8921   60.0304   40.5235 H       123        0    0.0000
    742 H          77.8498   60.5626   39.2086 H       123        0    0.0000
    743 H          77.2436   58.2649   40.1495 H       123        0    0.0000
    744 H          77.5228   58.2752   38.4116 H       123        0    0.0000
    745 C          79.1056   57.2928   39.5515 C.3     124        0    0.0000
    746 C          78.5072   55.8826   39.5047 C.3     124        0    0.0000
    747 H          79.8559   57.4096   38.7596 H       124        0    0.0000
    748 H          79.6264   57.4491   40.5043 H       124        0    0.0000
    749 H          78.1630   55.6536   38.4886 H       124        0    0.0000
    750 H          79.2755   55.1396   39.7521 H       124        0    0.0000
    751 C          77.3042   55.7146   40.4957 C.3     125        0    0.0000
    752 C          76.4868   54.4504   40.2078 C.3     125        0    0.0000
    753 H          77.6923   55.6861   41.5214 H       125        0    0.0000
    754 H          76.6623   56.6015   40.4262 H       125        0    0.0000
    755 H          75.9303   54.5678   39.2697 H       125        0    0.0000
    756 H          77.1566   53.5923   40.0716 H       125        0    0.0000
    757 C          75.4739   54.1231   41.3586 C.3     126        0    0.0000
    758 C          74.7802   52.7717   41.1548 C.3     126        0    0.0000
    759 H          76.0112   54.1296   42.3151 H       126        0    0.0000
    760 H          74.7272   54.9251   41.4112 H       126        0    0.0000
    761 H          73.7997   52.9192   40.6851 H       126        0    0.0000
    762 H          75.3669   52.1472   40.4698 H       126        0    0.0000
    763 C          74.5831   51.9958   42.5026 C.3     127        0    0.0000
    764 C          73.8234   50.6788   42.3090 C.3     127        0    0.0000
    765 H          75.5677   51.8005   42.9454 H       127        0    0.0000
    766 H          74.0435   52.6413   43.2067 H       127        0    0.0000
    767 H          74.1438   50.1929   41.3791 H       127        0    0.0000
    768 H          74.0600   49.9846   43.1249 H       127        0    0.0000
    769 C          72.2709   50.8903   42.2597 C.3     128        0    0.0000
    770 C          71.5043   49.5633   42.2376 C.3     128        0    0.0000
    771 H          71.9673   51.4856   43.1297 H       128        0    0.0000
    772 H          72.0228   51.4829   41.3704 H       128        0    0.0000
    773 H          71.4145   49.1979   41.2071 H       128        0    0.0000
    774 H          72.0593   48.7989   42.7956 H       128        0    0.0000
    775 C          70.0689   49.6960   42.8536 C.3     129        0    0.0000
    776 C          69.2712   48.3911   42.7541 C.3     129        0    0.0000
    777 H          70.1614   50.0012   43.9033 H       129        0    0.0000
    778 H          69.5355   50.5034   42.3367 H       129        0    0.0000
    779 H          69.3164   47.9998   41.7302 H       129        0    0.0000
    780 H          69.7169   47.6273   43.4033 H       129        0    0.0000
    781 C          67.7680   48.5816   43.1563 C.3     130        0    0.0000
    782 C          66.9731   47.2742   43.0684 C.3     130        0    0.0000
    783 H          67.7230   48.9813   44.1770 H       130        0    0.0000
    784 H          67.3200   49.3391   42.5013 H       130        0    0.0000
    785 H          67.0009   46.8853   42.0429 H       130        0    0.0000
    786 H          67.4332   46.5105   43.7076 H       130        0    0.0000
    787 C          65.4769   47.4585   43.4984 C.3     131        0    0.0000
    788 C          64.6850   46.1485   43.4224 C.3     131        0    0.0000
    789 H          65.4492   47.8561   44.5205 H       131        0    0.0000
    790 H          65.0143   48.2157   42.8532 H       131        0    0.0000
    791 H          64.7034   45.7567   42.3979 H       131        0    0.0000
    792 H          65.1540   45.3880   44.0590 H       131        0    0.0000
    793 C          63.1928   46.3296   43.8674 C.3     132        0    0.0000
    794 C          62.4214   45.0052   43.8659 C.3     132        0    0.0000
    795 H          63.1743   46.7746   44.8700 H       132        0    0.0000
    796 H          62.7080   47.0480   43.1948 H       132        0    0.0000
    797 H          62.4096   44.5779   42.8556 H       132        0    0.0000
    798 H          62.9261   44.2752   44.5108 H       132        0    0.0000
    799 C          60.9433   45.1780   44.3587 C.3     133        0    0.0000
    800 C          60.1953   43.8423   44.4312 C.3     133        0    0.0000
    801 H          60.9533   45.6576   45.3453 H       133        0    0.0000
    802 H          60.4223   45.8646   43.6800 H       133        0    0.0000
    803 H          60.1559   43.3788   43.4376 H       133        0    0.0000
    804 H          60.7345   43.1441   45.0834 H       133        0    0.0000
    805 C          58.7324   44.0091   44.9693 C.3     134        0    0.0000
    806 C          57.9807   42.6749   45.0315 C.3     134        0    0.0000
    807 H          58.7722   44.4653   45.9662 H       134        0    0.0000
    808 H          58.1956   44.7134   44.3218 H       134        0    0.0000
    809 H          58.0173   42.1766   44.0548 H       134        0    0.0000
    810 H          58.4683   42.0014   45.7472 H       134        0    0.0000
    811 C          56.4810   42.8569   45.4501 C.3     135        0    0.0000
    812 C          55.7184   41.5275   45.4713 C.3     135        0    0.0000
    813 H          56.4449   43.3271   46.4406 H       135        0    0.0000
    814 H          56.0013   43.5546   44.7524 H       135        0    0.0000
    815 H          55.7820   41.0417   44.4897 H       135        0    0.0000
    816 H          56.1788   40.8413   46.1929 H       135        0    0.0000
    817 C          54.2077   41.7151   45.8453 C.3     136        0    0.0000
    818 C          53.2842   40.8446   44.9861 C.3     136        0    0.0000
    819 H          54.0734   41.4723   46.9067 H       136        0    0.0000
    820 H          53.9432   42.7734   45.7283 H       136        0    0.0000
    821 H          53.6076   40.8734   43.9382 H       136        0    0.0000
    822 H          53.3484   39.7974   45.3070 H       136        0    0.0000
    823 C          51.7883   41.3066   45.0660 C.3     137        0    0.0000
    824 C          50.8757   40.2221   45.6492 C.3     137        0    0.0000
    825 H          51.7311   42.2153   45.6780 H       137        0    0.0000
    826 H          51.4492   41.5825   44.0598 H       137        0    0.0000
    827 H          50.3899   39.6638   44.8394 H       137        0    0.0000
    828 H          51.4699   39.4971   46.2193 H       137        0    0.0000
    829 C          49.7696   40.8175   46.5869 C.3     138        0    0.0000
    830 C          48.4125   40.9325   45.8840 C.3     138        0    0.0000
    831 H          49.6799   40.1813   47.4762 H       138        0    0.0000
    832 H          50.0966   41.8043   46.9372 H       138        0    0.0000
    833 H          48.5506   40.9243   44.7957 H       138        0    0.0000
    834 H          47.7874   40.0648   46.1288 H       138        0    0.0000
    835 C          47.6439   42.2383   46.2860 C.3     139        0    0.0000
    836 C          46.1778   41.9642   46.6387 C.3     139        0    0.0000
    837 H          48.1557   42.7015   47.1387 H       139        0    0.0000
    838 H          47.7039   42.9535   45.4563 H       139        0    0.0000
    839 H          45.6010   41.7712   45.7257 H       139        0    0.0000
    840 H          46.1021   41.0606   47.2561 H       139        0    0.0000
    841 C          45.5187   43.1596   47.4096 C.3     140        0    0.0000
    842 C          44.0414   42.9023   47.7265 C.3     140        0    0.0000
    843 H          46.0778   43.3332   48.3374 H       140        0    0.0000
    844 H          45.6209   44.0694   46.8052 H       140        0    0.0000
    845 H          43.4811   42.7355   46.7983 H       140        0    0.0000
    846 H          43.9387   41.9887   48.3251 H       140        0    0.0000
    847 C          43.3849   44.0935   48.5059 C.3     141        0    0.0000
    848 C          41.9103   43.8320   48.8317 C.3     141        0    0.0000
    849 H          43.9497   44.2652   49.4306 H       141        0    0.0000
    850 H          43.4811   45.0057   47.9040 H       141        0    0.0000
    851 H          41.7513   43.8753   49.9163 H       141        0    0.0000
    852 H          41.2826   44.6158   48.3898 H       141        0    0.0000
    853 C          41.4236   42.4380   48.3049 C.3     142        0    0.0000
    854 C          39.9959   42.1123   48.7573 C.3     142        0    0.0000
    855 H          41.4812   42.4343   47.2094 H       142        0    0.0000
    856 H          42.1162   41.6646   48.6595 H       142        0    0.0000
    857 H          39.9258   42.1681   49.8506 H       142        0    0.0000
    858 H          39.2959   42.8568   48.3583 H       142        0    0.0000
    859 C          39.5364   40.6871   48.2935 C.3     143        0    0.0000
    860 C          38.1392   40.3299   48.8124 C.3     143        0    0.0000
    861 H          39.5513   40.6501   47.1971 H       143        0    0.0000
    862 H          40.2680   39.9483   48.6436 H       143        0    0.0000
    863 H          38.1112   40.4137   49.9059 H       143        0    0.0000
    864 H          37.4001   41.0409   48.4229 H       143        0    0.0000
    865 C          37.7075   38.8788   48.4056 C.3     144        0    0.0000
    866 C          36.3319   38.5031   48.9674 C.3     144        0    0.0000
    867 H          37.6994   38.8060   47.3110 H       144        0    0.0000
    868 H          38.4658   38.1710   48.7628 H       144        0    0.0000
    869 H          36.3161   38.6516   50.0543 H       144        0    0.0000
    870 H          35.5615   39.1621   48.5482 H       144        0    0.0000
    871 C          35.9487   37.0154   48.6552 C.3     145        0    0.0000
    872 C          34.5906   36.6282   49.2506 C.3     145        0    0.0000
    873 H          35.9365   36.8743   47.5673 H       145        0    0.0000
    874 H          36.7335   36.3579   49.0494 H       145        0    0.0000
    875 H          34.4974   37.0294   50.2674 H       145        0    0.0000
    876 H          33.7803   37.0740   48.6605 H       145        0    0.0000
    877 C          34.3844   35.0749   49.2995 C.3     146        0    0.0000
    878 C          33.0169   34.6882   49.8735 C.3     146        0    0.0000
    879 H          34.4944   34.6715   48.2853 H       146        0    0.0000
    880 H          35.1852   34.6308   49.9038 H       146        0    0.0000
    881 H          32.8503   33.6104   49.7549 H       146        0    0.0000
    882 H          32.9890   34.8947   50.9506 H       146        0    0.0000
    883 C          31.8419   35.4604   49.1803 C.3     147        0    0.0000
    884 C          30.5176   35.3024   49.9357 C.3     147        0    0.0000
    885 H          32.1098   36.5218   49.1088 H       147        0    0.0000
    886 H          31.7348   35.0925   48.1524 H       147        0    0.0000
    887 H          30.5568   34.4172   50.5824 H       147        0    0.0000
    888 H          30.3541   36.1656   50.5927 H       147        0    0.0000
    889 C          29.2933   35.1662   48.9662 C.3     148        0    0.0000
    890 C          27.9754   34.9585   49.7205 C.3     148        0    0.0000
    891 H          29.2326   36.0680   48.3443 H       148        0    0.0000
    892 H          29.4734   34.3253   48.2850 H       148        0    0.0000
    893 H          28.1762   34.5898   50.7341 H       148        0    0.0000
    894 H          27.4506   35.9155   49.8316 H       148        0    0.0000
    895 C          27.0276   33.9440   48.9924 C.3     149        0    0.0000
    896 C          25.7727   33.6292   49.8139 C.3     149        0    0.0000
    897 H          26.7446   34.3613   48.0181 H       149        0    0.0000
    898 H          27.5858   33.0215   48.7898 H       149        0    0.0000
    899 H          25.6006   34.4191   50.5556 H       149        0    0.0000
    900 H          24.8907   33.6120   49.1618 H       149        0    0.0000
    901 C          25.8787   32.2529   50.5569 C.3     150        0    0.0000
    902 C          24.5223   31.7709   51.0831 C.3     150        0    0.0000
    903 H          26.3003   31.5107   49.8678 H       150        0    0.0000
    904 H          26.5900   32.3526   51.3862 H       150        0    0.0000
    905 H          24.1972   32.4023   51.9193 H       150        0    0.0000
    906 H          23.7595   31.8671   50.3005 H       150        0    0.0000
    907 C          24.5676   30.2795   51.5639 C.3     151        0    0.0000
    908 C          23.1707   29.6550   51.6521 C.3     151        0    0.0000
    909 H          25.1940   29.7036   50.8715 H       151        0    0.0000
    910 H          25.0605   30.2384   52.5431 H       151        0    0.0000
    911 H          22.5973   30.1282   52.4589 H       151        0    0.0000
    912 H          22.6172   29.8385   50.7228 H       151        0    0.0000
    913 C          23.2260   28.1098   51.9105 C.3     152        0    0.0000
    914 C          21.8434   27.4552   51.8157 C.3     152        0    0.0000
    915 H          23.9088   27.6538   51.1830 H       152        0    0.0000
    916 H          23.6588   27.9325   52.9029 H       152        0    0.0000
    917 H          21.1781   27.8682   52.5840 H       152        0    0.0000
    918 H          21.3847   27.6839   50.8457 H       152        0    0.0000
    919 C          21.9100   25.8985   51.9886 C.3     153        0    0.0000
    920 C          20.5251   25.2461   51.9145 C.3     153        0    0.0000
    921 H          22.5632   25.4839   51.2108 H       153        0    0.0000
    922 H          22.3825   25.6697   52.9519 H       153        0    0.0000
    923 H          20.1472   25.2814   50.8852 H       153        0    0.0000
    924 H          20.5935   24.1861   52.1888 H       153        0    0.0000
    925 C          19.4872   25.9463   52.8580 C.3     154        0    0.0000
    926 C          18.1004   25.2986   52.7782 C.3     154        0    0.0000
    927 H          19.8625   25.9060   53.8881 H       154        0    0.0000
    928 H          19.4230   27.0075   52.5873 H       154        0    0.0000
    929 H          17.4527   25.6981   53.5684 H       154        0    0.0000
    930 H          17.6228   25.5489   51.8228 H       154        0    0.0000
    931 C          18.1643   23.7385   52.9178 C.3     155        0    0.0000
    932 C          16.7887   23.0836   52.7512 C.3     155        0    0.0000
    933 H          18.8618   23.3447   52.1681 H       155        0    0.0000
    934 H          18.5836   23.4883   53.9002 H       155        0    0.0000
    935 H          16.5114   23.0558   51.6901 H       155        0    0.0000
    936 H          16.8237   22.0424   53.0951 H       155        0    0.0000
    937 C          15.6699   23.8410   53.5462 C.3     156        0    0.0000
    938 C          14.2836   23.2253   53.3271 C.3     156        0    0.0000
    939 H          15.9233   23.8269   54.6135 H       156        0    0.0000
    940 H          15.6672   24.8936   53.2370 H       156        0    0.0000
    941 H          13.5578   23.6790   54.0134 H       156        0    0.0000
    942 H          13.9328   23.4407   52.3102 H       156        0    0.0000
    943 C          14.2820   21.6728   53.5440 C.3     157        0    0.0000
    944 C          12.8721   21.0768   53.4657 C.3     157        0    0.0000
    945 H          14.9286   21.2096   52.7885 H       157        0    0.0000
    946 H          14.7301   21.4517   54.5206 H       157        0    0.0000
    947 H          12.1814   21.6620   54.0854 H       157        0    0.0000
    948 H          12.4966   21.1330   52.4364 H       157        0    0.0000
    949 C          12.8318   19.5824   53.9374 C.3     158        0    0.0000
    950 C          11.4250   18.9814   53.8436 C.3     158        0    0.0000
    951 H          13.5314   18.9995   53.3256 H       158        0    0.0000
    952 H          13.1960   19.5278   54.9708 H       158        0    0.0000
    953 H          10.7298   19.5513   54.4725 H       158        0    0.0000
    954 H          11.0521   19.0556   52.8145 H       158        0    0.0000
    955 C          11.3904   17.4780   54.2864 C.3     159        0    0.0000
    956 C           9.9960   16.8600   54.1355 C.3     159        0    0.0000
    957 H          12.1178   16.9162   53.6873 H       159        0    0.0000
    958 H          11.7215   17.4091   55.3300 H       159        0    0.0000
    959 H           9.2737   17.4053   54.7555 H       159        0    0.0000
    960 H           9.6537   16.9530   53.0974 H       159        0    0.0000
    961 C           9.9699   15.3463   54.5424 C.3     160        0    0.0000
    962 C           8.5595   14.7505   54.4734 C.3     160        0    0.0000
    963 H          10.6458   14.7905   53.8807 H       160        0    0.0000
    964 H          10.3712   15.2463   55.5585 H       160        0    0.0000
    965 H           7.8747   15.3310   55.1039 H       160        0    0.0000
    966 H           8.1741   14.8140   53.4482 H       160        0    0.0000
    967 C           8.5240   13.2527   54.9346 C.3     161        0    0.0000
    968 C           7.1143   12.8002   55.3309 C.3     161        0    0.0000
    969 H           8.9065   12.6232   54.1217 H       161        0    0.0000
    970 H           9.2112   13.1268   55.7805 H       161        0    0.0000
    971 H           6.6914   13.4913   56.0706 H       161        0    0.0000
    972 H           6.4507   12.8286   54.4578 H       161        0    0.0000
    973 C           7.1015   11.3509   55.9284 C.3     162        0    0.0000
    974 C           5.7427   10.9850   56.5357 C.3     162        0    0.0000
    975 H           7.3631   10.6393   55.1354 H       162        0    0.0000
    976 H           7.8868   11.2758   56.6907 H       162        0    0.0000
    977 H           5.4543   11.7294   57.2881 H       162        0    0.0000
    978 H           4.9668   11.0037   55.7603 H       162        0    0.0000
    979 C           5.7537    9.5677   57.2054 C.3     163        0    0.0000
    980 C           5.1085    9.5772   58.5957 C.3     163        0    0.0000
    981 H           5.2260    8.8631   56.5507 H       163        0    0.0000
    982 H           6.7910    9.2172   57.2745 H       163        0    0.0000
    983 H           5.4153   10.4750   59.1466 H       163        0    0.0000
    984 H           4.0163    9.6221   58.5032 H       163        0    0.0000
    985 C           5.4927    8.3119   59.4376 C.3     164        0    0.0000
    986 C           5.7791    8.6547   60.9037 C.3     164        0    0.0000
    987 H           4.6748    7.5835   59.3745 H       164        0    0.0000
    988 H           6.3720    7.8385   58.9833 H       164        0    0.0000
    989 H           6.3988    9.5580   60.9647 H       164        0    0.0000
    990 H           4.8418    8.8798   61.4274 H       164        0    0.0000
    991 C           6.5102    7.4889   61.6546 C.3     165        0    0.0000
    992 C           5.6964    6.9623   62.8418 C.3     165        0    0.0000
    993 H           6.7053    6.6773   60.9427 H       165        0    0.0000
    994 H           7.4880    7.8481   61.9986 H       165        0    0.0000
    995 H           5.8122    7.6313   63.7035 H       165        0    0.0000
    996 H           4.6284    6.9531   62.5913 H       165        0    0.0000
    997 C           6.1289    5.5157   63.2636 C.3     166        0    0.0000
    998 C           6.3373    5.3897   64.7767 C.3     166        0    0.0000
    999 H           5.3622    4.8058   62.9291 H       166        0    0.0000
   1000 H           7.0531    5.2542   62.7335 H       166        0    0.0000
   1001 H           6.9199    6.2418   65.1484 H       166        0    0.0000
   1002 H           5.3701    5.4199   65.2935 H       166        0    0.0000
   1003 C           7.0770    4.0635   65.1662 C.3     167        0    0.0000
   1004 C           7.0239    3.7899   66.6733 C.3     167        0    0.0000
   1005 H           6.6221    3.2303   64.6163 H       167        0    0.0000
   1006 H           8.1200    4.1292   64.8323 H       167        0    0.0000
   1007 H           7.5998    4.5508   67.2143 H       167        0    0.0000
   1008 H           5.9899    3.8628   67.0326 H       167        0    0.0000
   1009 C           7.5877    2.3739   67.0402 C.3     168        0    0.0000
   1010 C           7.3796    2.0313   68.5195 C.3     168        0    0.0000
   1011 H           7.0975    1.6234   66.4077 H       168        0    0.0000
   1012 H           8.6563    2.3441   66.7938 H       168        0    0.0000
   1013 H           7.8243    1.0542   68.7455 H       168        0    0.0000
   1014 H           7.8943    2.7655   69.1516 H       168        0    0.0000
   1015 C           5.8629    1.9997   68.9144 C.3     169        0    0.0000
   1016 C           5.6581    1.7658   70.4152 C.3     169        0    0.0000
   1017 H           5.3996    2.9479   68.6148 H       169        0    0.0000
   1018 H           5.3641    1.2098   68.3391 H       169        0    0.0000
   1019 H           4.8393    1.0538   70.5767 H       169        0    0.0000
   1020 H           6.5581    1.3154   70.8519 H       169        0    0.0000
   1021 C           5.3331    3.0926   71.1843 C.3     170        0    0.0000
   1022 C           5.0521    2.8483   72.6710 C.3     170        0    0.0000
   1023 H           6.1774    3.7837   71.0696 H       170        0    0.0000
   1024 H           4.4670    3.5722   70.7116 H       170        0    0.0000
   1025 H           5.0644    3.7995   73.2175 H       170        0    0.0000
   1026 H           4.0486    2.4241   72.7994 H       170        0    0.0000
   1027 C           6.0977    1.8783   73.3217 C.3     171        0    0.0000
   1028 C           5.8021    1.6140   74.8022 C.3     171        0    0.0000
   1029 H           6.0986    0.9336   72.7638 H       171        0    0.0000
   1030 H           7.0994    2.3113   73.2096 H       171        0    0.0000
   1031 H           4.9307    0.9547   74.8999 H       171        0    0.0000
   1032 H           6.6468    1.0905   75.2668 H       171        0    0.0000
   1033 C           5.5273    2.9361   75.5983 C.3     172        0    0.0000
   1034 C           5.3211    2.6805   77.0954 C.3     172        0    0.0000
   1035 H           6.3699    3.6220   75.4464 H       172        0    0.0000
   1036 H           4.6418    3.4263   75.1750 H       172        0    0.0000
   1037 H           6.1500    2.0813   77.4923 H       172        0    0.0000
   1038 H           5.3284    3.6306   77.6437 H       172        0    0.0000
   1039 C           3.9732    1.9367   77.3910 C.3     173        0    0.0000
   1040 C           3.7439    1.7244   78.8914 C.3     173        0    0.0000
   1041 H           3.1473    2.5182   76.9628 H       173        0    0.0000
   1042 H           3.9810    0.9707   76.8712 H       173        0    0.0000
   1043 H           4.5146    1.0587   79.2992 H       173        0    0.0000
   1044 H           3.8373    2.6784   79.4250 H       173        0    0.0000
   1045 C           2.3337    1.1111   79.1960 C.3     174        0    0.0000
   1046 C           2.1053    0.8966   80.6963 C.3     174        0    0.0000
   1047 H           1.5630    1.7777   78.7896 H       174        0    0.0000
   1048 H           2.2397    0.1579   78.6611 H       174        0    0.0000
   1049 H           2.8686    0.2199   81.1000 H       174        0    0.0000
   1050 H           2.2118    1.8476   81.2327 H       174        0    0.0000
   1051 C           0.6883    0.3000   81.0022 C.3     175        0    0.0000
   1052 C           0.4292    0.1604   82.5063 C.3     175        0    0.0000
   1053 H          -0.0730    0.9460   80.5477 H       175        0    0.0000
   1054 H           0.6037   -0.6786   80.5135 H       175        0    0.0000
   1055 H           0.9643   -0.7123   82.9008 H       175        0    0.0000
   1056 H           0.8201    1.0366   83.0383 H       175        0    0.0000
   1057 C          -1.0961    0.0088   82.8348 C.3     176        0    0.0000
   1058 C          -1.3575   -0.1035   84.3408 C.3     176        0    0.0000
   1059 H          -1.6340    0.8718   82.4230 H       176        0    0.0000
   1060 H          -1.4825   -0.8788   82.3187 H       176        0    0.0000
   1061 H          -1.9960    0.7238   84.6746 H       176        0    0.0000
   1062 H          -1.9025   -1.0301   84.5599 H       176        0    0.0000
   1063 C          -0.0315   -0.0875   85.1768 C.3     177        0    0.0000
   1064 C          -0.2966   -0.0376   86.6856 C.3     177        0    0.0000
   1065 H           0.5547   -0.9806   84.9272 H       177        0    0.0000
   1066 H           0.5685    0.7786   84.8715 H       177        0    0.0000
   1067 H          -0.8563    0.8712   86.9393 H       177        0    0.0000
   1068 H          -0.9224   -0.8871   86.9858 H       177        0    0.0000
   1069 C           1.0284   -0.0653   87.5228 C.3     178        0    0.0000
   1070 C           0.7628   -0.0295   89.0319 C.3     178        0    0.0000
   1071 H           1.5929   -0.9689   87.2616 H       178        0    0.0000
   1072 H           1.6498    0.7900   87.2298 H       178        0    0.0000
   1073 H           1.6950   -0.2073   89.5822 H       178        0    0.0000
   1074 H           0.4072    0.9653   89.3277 H       178        0    0.0000
   1075 C          -0.2965   -1.0970   89.4742 C.3     179        0    0.0000
   1076 C          -0.6420   -0.9901   90.9636 C.3     179        0    0.0000
   1077 H          -1.2019   -0.9690   88.8679 H       179        0    0.0000
   1078 H           0.0942   -2.0971   89.2495 H       179        0    0.0000
   1079 H          -1.6859   -0.6757   91.0860 H       179        0    0.0000
   1080 H          -0.5507   -1.9729   91.4424 H       179        0    0.0000
   1081 C           0.2835    0.0268   91.7166 C.3     180        0    0.0000
   1082 C           0.0382    0.0252   93.2295 C.3     180        0    0.0000
   1083 H           1.3303   -0.2242   91.5050 H       180        0    0.0000
   1084 H           0.1116    1.0305   91.3086 H       180        0    0.0000
   1085 H          -0.6425    0.8415   93.5010 H       180        0    0.0000
   1086 H          -0.4538   -0.9083   93.5298 H       180        0    0.0000
   1087 C           1.3666    0.1819   94.0469 C.3     181        0    0.0000
   1088 C           1.1250    0.1472   95.5600 C.3     181        0    0.0000
   1089 H           2.0566   -0.6204   93.7577 H       181        0    0.0000
   1090 H           1.8463    1.1272   93.7642 H       181        0    0.0000
   1091 H           0.8988   -0.8770   95.8814 H       181        0    0.0000
   1092 H           2.0344    0.4511   96.0932 H       181        0    0.0000
   1093 C          -0.0532    1.0853   95.9952 C.3     182        0    0.0000
   1094 C          -0.4821    0.8438   97.4467 C.3     182        0    0.0000
   1095 H           0.2586    2.1288   95.8638 H       182        0    0.0000
   1096 H          -0.9024    0.9228   95.3200 H       182        0    0.0000
   1097 H          -0.6742    1.8014   97.9464 H       182        0    0.0000
   1098 H          -1.4234    0.2809   97.4721 H       182        0    0.0000
   1099 C           0.5999    0.0560   98.2628 C.3     183        0    0.0000
   1100 C           0.2290   -0.0749   99.7441 C.3     183        0    0.0000
   1101 H           0.7244   -0.9386   97.8168 H       183        0    0.0000
   1102 H           1.5637    0.5701   98.1603 H       183        0    0.0000
   1103 H          -0.8496    0.0754   99.8764 H       183        0    0.0000
   1104 H           0.4518   -1.0886  100.0995 H       183        0    0.0000
   1105 C           0.9966    0.9555  100.6421 C.3     184        0    0.0000
   1106 C           0.6824    0.7755  102.1313 C.3     184        0    0.0000
   1107 H           2.0739    0.8421  100.4686 H       184        0    0.0000
   1108 H           0.7311    1.9706  100.3216 H       184        0    0.0000
   1109 H           1.3223    1.4329  102.7329 H       184        0    0.0000
   1110 H          -0.3540    1.0716  102.3356 H       184        0    0.0000
   1111 C           0.8884   -0.7039  102.6073 C.3     185        0    0.0000
   1112 C           0.4577   -0.9107  104.0636 C.3     185        0    0.0000
   1113 H           0.3181   -1.3701  101.9482 H       185        0    0.0000
   1114 H           1.9457   -0.9703  102.4863 H       185        0    0.0000
   1115 H          -0.6337   -1.0036  104.1236 H       185        0    0.0000
   1116 H           0.8754   -1.8488  104.4498 H       185        0    0.0000
   1117 C           0.9164    0.2664  104.9918 C.3     186        0    0.0000
   1118 C           0.3145    0.1660  106.3977 C.3     186        0    0.0000
   1119 H           2.0119    0.2641  105.0505 H       186        0    0.0000
   1120 H           0.6279    1.2169  104.5261 H       186        0    0.0000
   1121 H          -0.0160    1.1556  106.7369 H       186        0    0.0000
   1122 H          -0.5759   -0.4748  106.3808 H       186        0    0.0000
   1123 C           1.3329   -0.4115  107.4401 C.3     187        0    0.0000
   1124 C           0.7970   -0.3443  108.8745 C.3     187        0    0.0000
   1125 H           1.5620   -1.4504  107.1725 H       187        0    0.0000
   1126 H           2.2733    0.1483  107.3633 H       187        0    0.0000
   1127 H          -0.0682   -1.0099  108.9843 H       187        0    0.0000
   1128 H           1.5597   -0.7003  109.5781 H       187        0    0.0000
   1129 C           0.3719    1.1084  109.2824 C.3     188        0    0.0000
   1130 C          -0.0889    1.1906  110.7418 C.3     188        0    0.0000
   1131 H           1.2199    1.7846  109.1170 H       188        0    0.0000
   1132 H          -0.4321    1.4422  108.6147 H       188        0    0.0000
   1133 H          -0.2692    2.2361  111.0211 H       188        0    0.0000
   1134 H          -1.0425    0.6625  110.8655 H       188        0    0.0000
   1135 C           0.9605    0.5770  111.7316 C.3     189        0    0.0000
   1136 C           0.3867    0.3825  113.1394 C.3     189        0    0.0000
   1137 H           1.3057   -0.3838  111.3300 H       189        0    0.0000
   1138 H           1.8371    1.2354  111.7704 H       189        0    0.0000
   1139 H          -0.0194    1.3301  113.5144 H       189        0    0.0000
   1140 H          -0.4484   -0.3285  113.1103 H       189        0    0.0000
   1141 C           1.4621   -0.1424  114.1521 C.3     190        0    0.0000
   1142 C           0.9174   -0.2350  115.5817 C.3     190        0    0.0000
   1143 H           1.8114   -1.1272  113.8181 H       190        0    0.0000
   1144 H           2.3311    0.5265  114.1232 H       190        0    0.0000
   1145 H           0.1601   -1.0262  115.6451 H       190        0    0.0000
   1146 H           1.7221   -0.5130  116.2735 H       190        0    0.0000
   1147 C           0.2804    1.1140  116.0633 C.3     191        0    0.0000
   1148 C          -0.2323    1.0320  117.5054 C.3     191        0    0.0000
   1149 H           1.0299    1.9102  115.9753 H       191        0    0.0000
   1150 H          -0.5413    1.3786  115.3864 H       191        0    0.0000
   1151 H           0.2977    1.7575  118.1349 H       191        0    0.0000
   1152 H          -1.2954    1.3001  117.5424 H       191        0    0.0000
   1153 C          -0.0502   -0.3985  118.1202 C.3     192        0    0.0000
   1154 C          -0.2230   -0.4024  119.6431 C.3     192        0    0.0000
   1155 H          -0.7770   -1.0775  117.6574 H       192        0    0.0000
   1156 H           0.9457   -0.7738  117.8537 H       192        0    0.0000
   1157 H          -1.2436   -0.0982  119.9066 H       192        0    0.0000
   1158 H          -0.0860   -1.4181  120.0346 H       192        0    0.0000
   1159 C           0.7905    0.5559  120.3586 C.3     193        0    0.0000
   1160 C           0.5950    0.5780  121.8786 C.3     193        0    0.0000
   1161 H           1.8114    0.2363  120.1152 H       193        0    0.0000
   1162 H           0.6708    1.5666  119.9492 H       193        0    0.0000
   1163 H           0.9206   -0.3751  122.3136 H       193        0    0.0000
   1164 H           1.2211    1.3592  122.3270 H       193        0    0.0000
   1165 C          -0.8981    0.8336  122.2819 C.3     194        0    0.0000
   1166 C          -1.1487    0.5800  123.7725 C.3     194        0    0.0000
   1167 H          -1.1613    1.8676  122.0268 H       194        0    0.0000
   1168 H          -1.5438    0.1856  121.6763 H       194        0    0.0000
   1169 H          -0.8856   -0.4541  124.0276 H       194        0    0.0000
   1170 H          -0.5030    1.2279  124.3781 H       194        0    0.0000
   1171 H          -2.1869    0.7577  124.0530 H       194        0    0.0000
   1172 H         139.2798  105.1487  121.7450 H         0        0    0.0000
@<TRIPOS>BOND
     1     1     2      1
     2     1     3      1
     3     1     4      1
     4     1  1172      H
     5     2     5      1
     6     2     6      1
     7     2     7      1
     8     7     8      1
     9     7     9      1
    10     7    10      1
    11     8    11      1
    12     8    12      1
    13     8    13      1
    14    13    14      1
    15    13    15      1
    16    13    16      1
    17    14    17      1
    18    14    18      1
    19    14    19      1
    20    19    20      1
    21    19    21      1
    22    19    22      1
    23    20    23      1
    24    20    24      1
    25    20    25      1
    26    25    26      1
    27    25    27      1
    28    25    28      1
    29    26    29      1
    30    26    30      1
    31    26    31      1
    32    31    32      1
    33    31    33      1
    34    31    34      1
    35    32    35      1
    36    32    36      1
    37    32    37      1
    38    37    38      1
    39    37    39      1
    40    37    40      1
    41    38    41      1
    42    38    42      1
    43    38    43      1
    44    43    44      1
    45    43    45      1
    46    43    46      1
    47    44    47      1
    48    44    48      1
    49    44    49      1
    50    49    50      1
    51    49    51      1
    52    49    52      1
    53    50    53      1
    54    50    54      1
    55    50    55      1
    56    55    56      1
    57    55    57      1
    58    55    58      1
    59    56    59      1
    60    56    60      1
    61    56    61      1
    62    61    62      1
    63    61    63      1
    64    61    64      1
    65    62    65      1
    66    62    66      1
    67    62    67      1
    68    67    68      1
    69    67    69      1
    70    67    70      1
    71    68    71      1
    72    68    72      1
    73    68    73      1
    74    73    74      1
    75    73    75      1
    76    73    76      1
    77    74    77      1
    78    74    78      1
    79    74    79      1
    80    79    80      1
    81    79    81      1
    82    79    82      1
    83    80    83      1
    84    80    84      1
    85    80    85      1
    86    85    86      1
    87    85    87      1
    88    85    88      1
    89    86    89      1
    90    86    90      1
    91    86    91      1
    92    91    92      1
    93    91    93      1
    94    91    94      1
    95    92    95      1
    96    92    96      1
    97    92    97      1
    98    97    98      1
    99    97    99      1
   100    97   100      1
   101    98   101      1
   102    98   102      1
   103    98   103      1
   104   103   104      1
   105   103   105      1
   106   103   106      1
   107   104   107      1
   108   104   108      1
   109   104   109      1
   110   109   110      1
   111   109   111      1
   112   109   112      1
   113   110   113      1
   114   110   114      1
   115   110   115      1
   116   115   116      1
   117   115   117      1
   118   115   118      1
   119   116   119      1
   120   116   120      1
   121   116   121      1
   122   121   122      1
   123   121   123      1
   124   121   124      1
   125   122   125      1
   126   122   126      1
   127   122   127      1
   128   127   128      1
   129   127   129      1
   130   127   130      1
   131   128   131      1
   132   128   132      1
   133   128   133      1
   134   133   134      1
   135   133   135      1
   136   133   136      1
   137   134   137      1
   138   134   138      1
   139   134   139      1
   140   139   140      1
   141   139   141      1
   142   139   142      1
   143   140   143      1
   144   140   144      1
   145   140   145      1
   146   145   146      1
   147   145   147      1
   148   145   148      1
   149   146   149      1
   150   146   150      1
   151   146   151      1
   152   151   152      1
   153   151   153      1
   154   151   154      1
   155   152   155      1
   156   152   156      1
   157   152   157      1
   158   157   158      1
   159   157   159      1
   160   157   160      1
   161   158   161      1
   162   158   162      1
   163   158   163      1
   164   163   164      1
   165   163   165      1
   166   163   166      1
   167   164   167      1
   168   164   168      1
   169   164   169      1
   170   169   170      1
   171   169   171      1
   172   169   172      1
   173   170   173      1
   174   170   174      1
   175   170   175      1
   176   175   176      1
   177   175   177      1
   178   175   178      1
   179   176   179      1
   180   176   180      1
   181   176   181      1
   182   181   182      1
   183   181   183      1
   184   181   184      1
   185   182   185      1
   186   182   186      1
   187   182   187      1
   188   187   188      1
   189   187   189      1
   190   187   190      1
   191   188   191      1
   192   188   192      1
   193   188   193      1
   194   193   194      1
   195   193   195      1
   196   193   196      1
   197   194   197      1
   198   194   198      1
   199   194   199      1
   200   199   200      1
   201   199   201      1
   202   199   202      1
   203   200   203      1
   204   200   204      1
   205   200   205      1
   206   205   206      1
   207   205   207      1
   208   205   208      1
   209   206   209      1
   210   206   210      1
   211   206   211      1
   212   211   212      1
   213   211   213      1
   214   211   214      1
   215   212   215      1
   216   212   216      1
   217   212   217      1
   218   217   218      1
   219   217   219      1
   220   217   220      1
   221   218   221      1
   222   218   222      1
   223   218   223      1
   224   223   224      1
   225   223   225      1
   226   223   226      1
   227   224   227      1
   228   224   228      1
   229   224   229      1
   230   229   230      1
   231   229   231      1
   232   229   232      1
   233   230   233      1
   234   230   234      1
   235   230   235      1
   236   235   236      1
   237   235   237      1
   238   235   238      1
   239   236   239      1
   240   236   240      1
   241   236   241      1
   242   241   242      1
   243   241   243      1
   244   241   244      1
   245   242   245      1
   246   242   246      1
   247   242   247      1
   248   247   248      1
   249   247   249      1
   250   247   250      1
   251   248   251      1
   252   248   252      1
   253   248   253      1
   254   253   254      1
   255   253   255      1
   256   253   256      1
   257   254   257      1
   258   254   258      1
   259   254   259      1
   260   259   260      1
   261   259   261      1
   262   259   262      1
   263   260   263      1
   264   260   264      1
   265   260   265      1
   266   265   266      1
   267   265   267      1
   268   265   268      1
   269   266   269      1
   270   266   270      1
   271   266   271      1
   272   271   272      1
   273   271   273      1
   274   271   274      1
   275   272   275      1
   276   272   276      1
   277   272   277      1
   278   277   278      1
   279   277   279      1
   280   277   280      1
   281   278   281      1
   282   278   282      1
   283   278   283      1
   284   283   284      1
   285   283   285      1
   286   283   286      1
   287   284   287      1
   288   284   288      1
   289   284   289      1
   290   289   290      1
   291   289   291      1
   292   289   292      1
   293   290   293      1
   294   290   294      1
   295   290   295      1
   296   295   296      1
   297   295   297      1
   298   295   298      1
   299   296   299      1
   300   296   300      1
   301   296   301      1
   302   301   302      1
   303   301   303      1
   304   301   304      1
   305   302   305      1
   306   302   306      1
   307   302   307      1
   308   307   308      1
   309   307   309      1
   310   307   310      1
   311   308   311      1
   312   308   312      1
   313   308   313      1
   314   313   314      1
   315   313   315      1
   316   313   316      1
   317   314   317      1
   318   314   318      1
   319   314   319      1
   320   319   320      1
   321   319   321      1
   322   319   322      1
   323   320   323      1
   324   320   324      1
   325   320   325      1
   326   325   326      1
   327   325   327      1
   328   325   328      1
   329   326   329      1
   330   326   330      1
   331   326   331      1
   332   331   332      1
   333   331   333      1
   334   331   334      1
   335   332   335      1
   336   332   336      1
   337   332   337      1
   338   337   338      1
   339   337   339      1
   340   337   340      1
   341   338   341      1
   342   338   342      1
   343   338   343      1
   344   343   344      1
   345   343   345      1
   346   343   346      1
   347   344   347      1
   348   344   348      1
   349   344   349      1
   350   349   350      1
   351   349   351      1
   352   349   352      1
   353   350   353      1
   354   350   354      1
   355   350   355      1
   356   355   356      1
   357   355   357      1
   358   355   358      1
   359   356   359      1
   360   356   360      1
   361   356   361      1
   362   361   362      1
   363   361   363      1
   364   361   364      1
   365   362   365      1
   366   362   366      1
   367   362   367      1
   368   367   368      1
   369   367   369      1
   370   367   370      1
   371   368   371      1
   372   368   372      1
   373   368   373      1
   374   373   374      1
   375   373   375      1
   376   373   376      1
   377   374   377      1
   378   374   378      1
   379   374   379      1
   380   379   380      1
   381   379   381      1
   382   379   382      1
   383   380   383      1
   384   380   384      1
   385   380   385      1
   386   385   386      1
   387   385   387      1
   388   385   388      1
   389   386   389      1
   390   386   390      1
   391   386   391      1
   392   391   392      1
   393   391   393      1
   394   391   394      1
   395   392   395      1
   396   392   396      1
   397   392   397      1
   398   397   398      1
   399   397   399      1
   400   397   400      1
   401   398   401      1
   402   398   402      1
   403   398   403      1
   404   403   404      1
   405   403   405      1
   406   403   406      1
   407   404   407      1
   408   404   408      1
   409   404   409      1
   410   409   410      1
   411   409   411      1
   412   409   412      1
   413   410   413      1
   414   410   414      1
   415   410   415      1
   416   415   416      1
   417   415   417      1
   418   415   418      1
   419   416   419      1
   420   416   420      1
   421   416   421      1
   422   421   422      1
   423   421   423      1
   424   421   424      1
   425   422   425      1
   426   422   426      1
   427   422   427      1
   428   427   428      1
   429   427   429      1
   430   427   430      1
   431   428   431      1
   432   428   432      1
   433   428   433      1
   434   433   434      1
   435   433   435      1
   436   433   436      1
   437   434   437      1
   438   434   438      1
   439   434   439      1
   440   439   440      1
   441   439   441      1
   442   439   442      1
   443   440   443      1
   444   440   444      1
   445   440   445      1
   446   445   446      1
   447   445   447      1
   448   445   448      1
   449   446   449      1
   450   446   450      1
   451   446   451      1
   452   451   452      1
   453   451   453      1
   454   451   454      1
   455   452   455      1
   456   452   456      1
   457   452   457      1
   458   457   458      1
   459   457   459      1
   460   457   460      1
   461   458   461      1
   462   458   462      1
   463   458   463      1
   464   463   464      1
   465   463   465      1
   466   463   466      1
   467   464   467      1
   468   464   468      1
   469   464   469      1
   470   469   470      1
   471   469   471      1
   472   469   472      1
   473   470   473      1
   474   470   474      1
   475   470   475      1
   476   475   476      1
   477   475   477      1
   478   475   478      1
   479   476   479      1
   480   476   480      1
   481   476   481      1
   482   481   482      1
   483   481   483      1
   484   481   484      1
   485   482   485      1
   486   482   486      1
   487   482   487      1
   488   487   488      1
   489   487   489      1
   490   487   490      1
   491   488   491      1
   492   488   492      1
   493   488   493      1
   494   493   494      1
   495   493   495      1
   496   493   496      1
   497   494   497      1
   498   494   498      1
   499   494   499      1
   500   499   500      1
   501   499   501      1
   502   499   502      1
   503   500   503      1
   504   500   504      1
   505   500   505      1
   506   505   506      1
   507   505   507      1
   508   505   508      1
   509   506   509      1
   510   506   510      1
   511   506   511      1
   512   511   512      1
   513   511   513      1
   514   511   514      1
   515   512   515      1
   516   512   516      1
   517   512   517      1
   518   517   518      1
   519   517   519      1
   520   517   520      1
   521   518   521      1
   522   518   522      1
   523   518   523      1
   524   523   524      1
   525   523   525      1
   526   523   526      1
   527   524   527      1
   528   524   528      1
   529   524   529      1
   530   529   530      1
   531   529   531      1
   532   529   532      1
   533   530   533      1
   534   530   534      1
   535   530   535      1
   536   535   536      1
   537   535   537      1
   538   535   538      1
   539   536   539      1
   540   536   540      1
   541   536   541      1
   542   541   542      1
   543   541   543      1
   544   541   544      1
   545   542   545      1
   546   542   546      1
   547   542   547      1
   548   547   548      1
   549   547   549      1
   550   547   550      1
   551   548   551      1
   552   548   552      1
   553   548   553      1
   554   553   554      1
   555   553   555      1
   556   553   556      1
   557   554   557      1
   558   554   558      1
   559   554   559      1
   560   559   560      1
   561   559   561      1
   562   559   562      1
   563   560   563      1
   564   560   564      1
   565   560   565      1
   566   565   566      1
   567   565   567      1
   568   565   568      1
   569   566   569      1
   570   566   570      1
   571   566   571      1
   572   571   572      1
   573   571   573      1
   574   571   574      1
   575   572   575      1
   576   572   576      1
   577   572   577      1
   578   577   578      1
   579   577   579      1
   580   577   580      1
   581   578   581      1
   582   578   582      1
   583   578   583      1
   584   583   584      1
   585   583   585      1
   586   583   586      1
   587   584   587      1
   588   584   588      1
   589   584   589      1
   590   589   590      1
   591   589   591      1
   592   589   592      1
   593   590   593      1
   594   590   594      1
   595   590   595      1
   596   595   596      1
   597   595   597      1
   598   595   598      1
   599   596   599      1
   600   596   600      1
   601   596   601      1
   602   601   602      1
   603   601   603      1
   604   601   604      1
   605   602   605      1
   606   602   606      1
   607   602   607      1
   608   607   608      1
   609   607   609      1
   610   607   610      1
   611   608   611      1
   612   608   612      1
   613   608   613      1
   614   613   614      1
   615   613   615      1
   616   613   616      1
   617   614   617      1
   618   614   618      1
   619   614   619      1
   620   619   620      1
   621   619   621      1
   622   619   622      1
   623   620   623      1
   624   620   624      1
   625   620   625      1
   626   625   626      1
   627   625   627      1
   628   625   628      1
   629   626   629      1
   630   626   630      1
   631   626   631      1
   632   631   632      1
   633   631   633      1
   634   631   634      1
   635   632   635      1
   636   632   636      1
   637   632   637      1
   638   637   638      1
   639   637   639      1
   640   637   640      1
   641   638   641      1
   642   638   642      1
   643   638   643      1
   644   643   644      1
   645   643   645      1
   646   643   646      1
   647   644   647      1
   648   644   648      1
   649   644   649      1
   650   649   650      1
   651   649   651      1
   652   649   652      1
   653   650   653      1
   654   650   654      1
   655   650   655      1
   656   655   656      1
   657   655   657      1
   658   655   658      1
   659   656   659      1
   660   656   660      1
   661   656   661      1
   662   661   662      1
   663   661   663      1
   664   661   664      1
   665   662   665      1
   666   662   666      1
   667   662   667      1
   668   667   668      1
   669   667   669      1
   670   667   670      1
   671   668   671      1
   672   668   672      1
   673   668   673      1
   674   673   674      1
   675   673   675      1
   676   673   676      1
   677   674   677      1
   678   674   678      1
   679   674   679      1
   680   679   680      1
   681   679   681      1
   682   679   682      1
   683   680   683      1
   684   680   684      1
   685   680   685      1
   686   685   686      1
   687   685   687      1
   688   685   688      1
   689   686   689      1
   690   686   690      1
   691   686   691      1
   692   691   692      1
   693   691   693      1
   694   691   694      1
   695   692   695      1
   696   692   696      1
   697   692   697      1
   698   697   698      1
   699   697   699      1
   700   697   700      1
   701   698   701      1
   702   698   702      1
   703   698   703      1
   704   703   704      1
   705   703   705      1
   706   703   706      1
   707   704   707      1
   708   704   708      1
   709   704   709      1
   710   709   710      1
   711   709   711      1
   712   709   712      1
   713   710   713      1
   714   710   714      1
   715   710   715      1
   716   715   716      1
   717   715   717      1
   718   715   718      1
   719   716   719      1
   720   716   720      1
   721   716   721      1
   722   721   722      1
   723   721   723      1
   724   721   724      1
   725   722   725      1
   726   722   726      1
   727   722   727      1
   728   727   728      1
   729   727   729      1
   730   727   730      1
   731   728   731      1
   732   728   732      1
   733   728   733      1
   734   733   734      1
   735   733   735      1
   736   733   736      1
   737   734   737      1
   738   734   738      1
   739   734   739      1
   740   739   740      1
   741   739   741      1
   742   739   742      1
   743   740   743      1
   744   740   744      1
   745   740   745      1
   746   745   746      1
   747   745   747      1
   748   745   748      1
   749   746   749      1
   750   746   750      1
   751   746   751      1
   752   751   752      1
   753   751   753      1
   754   751   754      1
   755   752   755      1
   756   752   756      1
   757   752   757      1
   758   757   758      1
   759   757   759      1
   760   757   760      1
   761   758   761      1
   762   758   762      1
   763   758   763      1
   764   763   764      1
   765   763   765      1
   766   763   766      1
   767   764   767      1
   768   764   768      1
   769   764   769      1
   770   769   770      1
   771   769   771      1
   772   769   772      1
   773   770   773      1
   774   770   774      1
   775   770   775      1
   776   775   776      1
   777   775   777      1
   778   775   778      1
   779   776   779      1
   780   776   780      1
   781   776   781      1
   782   781   782      1
   783   781   783      1
   784   781   784      1
   785   782   785      1
   786   782   786      1
   787   782   787      1
   788   787   788      1
   789   787   789      1
   790   787   790      1
   791   788   791      1
   792   788   792      1
   793   788   793      1
   794   793   794      1
   795   793   795      1
   796   793   796      1
   797   794   797      1
   798   794   798      1
   799   794   799      1
   800   799   800      1
   801   799   801      1
   802   799   802      1
   803   800   803      1
   804   800   804      1
   805   800   805      1
   806   805   806      1
   807   805   807      1
   808   805   808      1
   809   806   809      1
   810   806   810      1
   811   806   811      1
   812   811   812      1
   813   811   813      1
   814   811   814      1
   815   812   815      1
   816   812   816      1
   817   812   817      1
   818   817   818      1
   819   817   819      1
   820   817   820      1
   821   818   821      1
   822   818   822      1
   823   818   823      1
   824   823   824      1
   825   823   825      1
   826   823   826      1
   827   824   827      1
   828   824   828      1
   829   824   829      1
   830   829   830      1
   831   829   831      1
   832   829   832      1
   833   830   833      1
   834   830   834      1
   835   830   835      1
   836   835   836      1
   837   835   837      1
   838   835   838      1
   839   836   839      1
   840   836   840      1
   841   836   841      1
   842   841   842      1
   843   841   843      1
   844   841   844      1
   845   842   845      1
   846   842   846      1
   847   842   847      1
   848   847   848      1
   849   847   849      1
   850   847   850      1
   851   848   851      1
   852   848   852      1
   853   848   853      1
   854   853   854      1
   855   853   855      1
   856   853   856      1
   857   854   857      1
   858   854   858      1
   859   854   859      1
   860   859   860      1
   861   859   861      1
   862   859   862      1
   863   860   863      1
   864   860   864      1
   865   860   865      1
   866   865   866      1
   867   865   867      1
   868   865   868      1
   869   866   869      1
   870   866   870      1
   871   866   871      1
   872   871   872      1
   873   871   873      1
   874   871   874      1
   875   872   875      1
   876   872   876      1
   877   872   877      1
   878   877   878      1
   879   877   879      1
   880   877   880      1
   881   878   881      1
   882   878   882      1
   883   878   883      1
   884   883   884      1
   885   883   885      1
   886   883   886      1
   887   884   887      1
   888   884   888      1
   889   884   889      1
   890   889   890      1
   891   889   891      1
   892   889   892      1
   893   890   893      1
   894   890   894      1
   895   890   895      1
   896   895   896      1
   897   895   897      1
   898   895   898      1
   899   896   899      1
   900   896   900      1
   901   896   901      1
   902   901   902      1
   903   901   903      1
   904   901   904      1
   905   902   905      1
   906   902   906      1
   907   902   907      1
   908   907   908      1
   909   907   909      1
   910   907   910      1
   911   908   911      1
   912   908   912      1
   913   908   913      1
   914   913   914      1
   915   913   915      1
   916   913   916      1
   917   914   917      1
   918   914   918      1
   919   914   919      1
   920   919   920      1
   921   919   921      1
   922   919   922      1
   923   920   923      1
   924   920   924      1
   925   920   925      1
   926   925   926      1
   927   925   927      1
   928   925   928      1
   929   926   929      1
   930   926   930      1
   931   926   931      1
   932   931   932      1
   933   931   933      1
   934   931   934      1
   935   932   935      1
   936   932   936      1
   937   932   937      1
   938   937   938      1
   939   937   939      1
   940   937   940      1
   941   938   941      1
   942   938   942      1
   943   938   943      1
   944   943   944      1
   945   943   945      1
   946   943   946      1
   947   944   947      1
   948   944   948      1
   949   944   949      1
   950   949   950      1
   951   949   951      1
   952   949   952      1
   953   950   953      1
   954   950   954      1
   955   950   955      1
   956   955   956      1
   957   955   957      1
   958   955   958      1
   959   956   959      1
   960   956   960      1
   961   956   961      1
   962   961   962      1
   963   961   963      1
   964   961   964      1
   965   962   965      1
   966   962   966      1
   967   962   967      1
   968   967   968      1
   969   967   969      1
   970   967   970      1
   971   968   971      1
   972   968   972      1
   973   968   973      1
   974   973   974      1
   975   973   975      1
   976   973   976      1
   977   974   977      1
   978   974   978      1
   979   974   979      1
   980   979   980      1
   981   979   981      1
   982   979   982      1
   983   980   983      1
   984   980   984      1
   985   980   985      1
   986   985   986      1
   987   985   987      1
   988   985   988      1
   989   986   989      1
   990   986   990      1
   991   986   991      1
   992   991   992      1
   993   991   993      1
   994   991   994      1
   995   992   995      1
   996   992   996      1
   997   992   997      1
   998   997   998      1
   999   997   999      1
  1000   997  1000      1
  1001   998  1001      1
  1002   998  1002      1
  1003   998  1003      1
  1004  1003  1004      1
  1005  1003  1005      1
  1006  1003  1006      1
  1007  1004  1007      1
  1008  1004  1008      1
  1009  1004  1009      1
  1010  1009  1010      1
  1011  1009  1011      1
  1012  1009  1012      1
  1013  1010  1013      1
  1014  1010  1014      1
  1015  1010  1015      1
  1016  1015  1016      1
  1017  1015  1017      1
  1018  1015  1018      1
  1019  1016  1019      1
  1020  1016  1020      1
  1021  1016  1021      1
  1022  1021  1022      1
  1023  1021  1023      1
  1024  1021  1024      1
  1025  1022  1025      1
  1026  1022  1026      1
  1027  1022  1027      1
  1028  1027  1028      1
  1029  1027  1029      1
  1030  1027  1030      1
  1031  1028  1031      1
  1032  1028  1032      1
  1033  1028  1033      1
  1034  1033  1034      1
  1035  1033  1035      1
  1036  1033  1036      1
  1037  1034  1037      1
  1038  1034  1038      1
  1039  1034  1039      1
  1040  1039  1040      1
  1041  1039  1041      1
  1042  1039  1042      1
  1043  1040  1043      1
  1044  1040  1044      1
  1045  1040  1045      1
  1046  1045  1046      1
  1047  1045  1047      1
  1048  1045  1048      1
  1049  1046  1049      1
  1050  1046  1050      1
  1051  1046  1051      1
  1052  1051  1052      1
  1053  1051  1053      1
  1054  1051  1054      1
  1055  1052  1055      1
  1056  1052  1056      1
  1057  1052  1057      1
  1058  1057  1058      1
  1059  1057  1059      1
  1060  1057  1060      1
  1061  1058  1061      1
  1062  1058  1062      1
  1063  1058  1063      1
  1064  1063  1064      1
  1065  1063  1065      1
  1066  1063  1066      1
  1067  1064  1067      1
  1068  1064  1068      1
  1069  1064  1069      1
  1070  1069  1070      1
  1071  1069  1071      1
  1072  1069  1072      1
  1073  1070  1073      1
  1074  1070  1074      1
  1075  1070  1075      1
  1076  1075  1076      1
  1077  1075  1077      1
  1078  1075  1078      1
  1079  1076  1079      1
  1080  1076  1080      1
  1081  1076  1081      1
  1082  1081  1082      1
  1083  1081  1083      1
  1084  1081  1084      1
  1085  1082  1085      1
  1086  1082  1086      1
  1087  1082  1087      1
  1088  1087  1088      1
  1089  1087  1089      1
  1090  1087  1090      1
  1091  1088  1091      1
  1092  1088  1092      1
  1093  1088  1093      1
  1094  1093  1094      1
  1095  1093  1095      1
  1096  1093  1096      1
  1097  1094  1097      1
  1098  1094  1098      1
  1099  1094  1099      1
  1100  1099  1100      1
  1101  1099  1101      1
  1102  1099  1102      1
  1103  1100  1103      1
  1104  1100  1104      1
  1105  1100  1105      1
  1106  1105  1106      1
  1107  1105  1107      1
  1108  1105  1108      1
  1109  1106  1109      1
  1110  1106  1110      1
  1111  1106  1111      1
  1112  1111  1112      1
  1113  1111  1113      1
  1114  1111  1114      1
  1115  1112  1115      1
  1116  1112  1116      1
  1117  1112  1117      1
  1118  1117  1118      1
  1119  1117  1119      1
  1120  1117  1120      1
  1121  1118  1121      1
  1122  1118  1122      1
  1123  1118  1123      1
  1124  1123  1124      1
  1125  1123  1125      1
  1126  1123  1126      1
  1127  1124  1127      1
  1128  1124  1128      1
  1129  1124  1129      1
  1130  1129  1130      1
  1131  1129  1131      1
  1132  1129  1132      1
  1133  1130  1133      1
  1134  1130  1134      1
  1135  1130  1135      1
  1136  1135  1136      1
  1137  1135  1137      1
  1138  1135  1138      1
  1139  1136  1139      1
  1140  1136  1140      1
  1141  1136  1141      1
  1142  1141  1142      1
  1143  1141  1143      1
  1144  1141  1144      1
  1145  1142  1145      1
  1146  1142  1146      1
  1147  1142  1147      1
  1148  1147  1148      1
  1149  1147  1149      1
  1150  1147  1150      1
  1151  1148  1151      1
  1152  1148  1152      1
  1153  1148  1153      1
  1154  1153  1154      1
  1155  1153  1155      1
  1156  1153  1156      1
  1157  1154  1157      1
  1158  1154  1158      1
  1159  1154  1159      1
  1160  1159  1160      1
  1161  1159  1161      1
  1162  1159  1162      1
  1163  1160  1163      1
  1164  1160  1164      1
  1165  1160  1165      1
  1166  1165  1166      1
  1167  1165  1167      1
  1168  1165  1168      1
  1169  1166  1169      1
  1170  1166  1170      1
  1171  1166  1171      H
