###
### Created by PolyChef-cpp17 on Thu Feb 27 19:40:28 2025
###

@<TRIPOS>MOLECULE
NO_INFO
296 295 1 0 0
SMALL
USER_CHARGES


@<TRIPOS>ATOM
      1 C         149.2798  157.1087  120.6551 C.3       0        0    0.0000
      2 C         148.4513  155.9575  120.0742 C.3       0        0    0.0000
      3 H         148.8875  158.0703  120.3015 H         0        0    0.0000
      4 H         150.3162  157.0421  120.3014 H         0        0    0.0000
      5 H         148.4067  155.1275  120.7902 H         0        0    0.0000
      6 H         147.4177  156.2850  119.9068 H         0        0    0.0000
      7 C         149.0385  155.4266  118.7211 C.3       1        0    0.0000
      8 C         149.6368  156.5499  117.8671 C.3       1        0    0.0000
      9 H         149.8040  154.6719  118.9398 H         1        0    0.0000
     10 H         148.2419  154.9158  118.1661 H         1        0    0.0000
     11 H         148.9460  157.4012  117.8277 H         1        0    0.0000
     12 H         150.5637  156.9174  118.3248 H         1        0    0.0000
     13 C         149.9468  156.0825  116.4033 C.3       2        0    0.0000
     14 C         149.8866  157.2389  115.3992 C.3       2        0    0.0000
     15 H         150.9407  155.6184  116.3833 H         2        0    0.0000
     16 H         149.2290  155.3021  116.1218 H         2        0    0.0000
     17 H         148.9653  157.8164  115.5455 H         2        0    0.0000
     18 H         150.7217  157.9295  115.5702 H         2        0    0.0000
     19 C         149.9396  156.7397  113.9142 C.3       3        0    0.0000
     20 C         149.8235  157.8915  112.9097 C.3       3        0    0.0000
     21 H         150.8799  156.1968  113.7570 H         3        0    0.0000
     22 H         149.1288  156.0182  113.7545 H         3        0    0.0000
     23 H         148.8884  158.4411  113.0740 H         3        0    0.0000
     24 H         150.6407  158.6074  113.0622 H         3        0    0.0000
     25 C         149.8610  157.3907  111.4247 C.3       4        0    0.0000
     26 C         149.8727  158.5491  110.4212 C.3       4        0    0.0000
     27 H         150.7502  156.7634  111.2854 H         4        0    0.0000
     28 H         148.9905  156.7474  111.2463 H         4        0    0.0000
     29 H         148.9735  159.1648  110.5469 H         4        0    0.0000
     30 H         150.7320  159.2038  110.6124 H         4        0    0.0000
     31 C         149.9391  158.0488  108.9370 C.3       5        0    0.0000
     32 C         148.8812  158.7162  108.0512 C.3       5        0    0.0000
     33 H         150.9423  158.2493  108.5408 H         5        0    0.0000
     34 H         149.8074  156.9598  108.9247 H         5        0    0.0000
     35 H         147.9220  158.7632  108.5814 H         5        0    0.0000
     36 H         149.1718  159.7514  107.8332 H         5        0    0.0000
     37 C         148.6733  157.9539  106.6973 C.3       6        0    0.0000
     38 C         149.0203  158.8221  105.4827 C.3       6        0    0.0000
     39 H         149.2933  157.0489  106.7022 H         6        0    0.0000
     40 H         147.6299  157.6207  106.6357 H         6        0    0.0000
     41 H         148.1367  159.3859  105.1587 H         6        0    0.0000
     42 H         149.7837  159.5615  105.7547 H         6        0    0.0000
     43 C         149.5477  157.9718  104.2759 C.3       7        0    0.0000
     44 C         148.9695  158.4428  102.9369 C.3       7        0    0.0000
     45 H         150.6429  158.0303  104.2541 H         7        0    0.0000
     46 H         149.2917  156.9188  104.4466 H         7        0    0.0000
     47 H         147.8829  158.5697  103.0202 H         7        0    0.0000
     48 H         149.3820  159.4246  102.6735 H         7        0    0.0000
     49 C         149.2731  157.4382  101.7724 C.3       8        0    0.0000
     50 C         149.0972  158.0793  100.3915 C.3       8        0    0.0000
     51 H         150.2983  157.0647  101.8859 H         8        0    0.0000
     52 H         148.6089  156.5706  101.8717 H         8        0    0.0000
     53 H         148.0524  158.3816  100.2474 H         8        0    0.0000
     54 H         149.7018  158.9920  100.3207 H         8        0    0.0000
     55 C         149.5075  157.1100   99.2298 C.3       9        0    0.0000
     56 C         149.2691  157.7268   97.8471 C.3       9        0    0.0000
     57 H         150.5659  156.8462   99.3466 H         9        0    0.0000
     58 H         148.9376  156.1778   99.3292 H         9        0    0.0000
     59 H         148.2142  158.0072   97.7371 H         9        0    0.0000
     60 H         149.8531  158.6495   97.7411 H         9        0    0.0000
     61 C         149.6555  156.7479   96.6853 C.3      10        0    0.0000
     62 C         149.4162  157.3643   95.3026 C.3      10        0    0.0000
     63 H         150.7106  156.4680   96.7949 H        10        0    0.0000
     64 H         149.0721  155.8250   96.7917 H        10        0    0.0000
     65 H         148.3616  157.6463   95.1938 H        10        0    0.0000
     66 H         150.0014  158.2861   95.1954 H        10        0    0.0000
     67 C         149.7997  156.3843   94.1408 C.3      11        0    0.0000
     68 C         149.5629  157.0017   92.7581 C.3      11        0    0.0000
     69 H         150.8538  156.1009   94.2506 H        11        0    0.0000
     70 H         149.2132  155.4633   94.2469 H        11        0    0.0000
     71 H         148.5091  157.2867   92.6489 H        11        0    0.0000
     72 H         150.1507  157.9218   92.6513 H        11        0    0.0000
     73 C         149.9441  156.0208   91.5962 C.3      12        0    0.0000
     74 C         149.7086  156.6387   90.2136 C.3      12        0    0.0000
     75 H         150.9975  155.7349   91.7061 H        12        0    0.0000
     76 H         149.3554  155.1012   91.7024 H        12        0    0.0000
     77 H         148.6569  156.9319   90.1067 H        12        0    0.0000
     78 H         150.3035  157.5540   90.1043 H        12        0    0.0000
     79 C         150.0791  155.6537   89.0517 C.3      13        0    0.0000
     80 C         149.8505  156.2742   87.6690 C.3      13        0    0.0000
     81 H         151.1293  155.3563   89.1616 H        13        0    0.0000
     82 H         149.4803  154.7405   89.1579 H        13        0    0.0000
     83 H         148.8031  156.5833   87.5639 H        13        0    0.0000
     84 H         150.4590  157.1802   87.5581 H        13        0    0.0000
     85 C         150.2038  155.2828   86.5072 C.3      14        0    0.0000
     86 C         149.9684  155.9009   85.1246 C.3      14        0    0.0000
     87 H         151.2526  154.9778   86.6093 H        14        0    0.0000
     88 H         149.5991  154.3746   86.6211 H        14        0    0.0000
     89 H         148.9562  156.3200   85.0673 H        14        0    0.0000
     90 H         150.6639  156.7335   84.9613 H        14        0    0.0000
     91 C         150.1494  154.8574   83.9687 C.3      15        0    0.0000
     92 C         149.8924  155.4701   82.5876 C.3      15        0    0.0000
     93 H         151.1669  154.4501   84.0162 H        15        0    0.0000
     94 H         149.4653  154.0171   84.1407 H        15        0    0.0000
     95 H         148.8225  155.4249   82.3492 H        15        0    0.0000
     96 H         150.1703  156.5314   82.5892 H        15        0    0.0000
     97 C         150.6936  154.7397   81.4553 C.3      16        0    0.0000
     98 C         150.4597  155.3711   80.0784 C.3      16        0    0.0000
     99 H         151.7616  154.7659   81.7046 H        16        0    0.0000
    100 H         150.3997  153.6829   81.4393 H        16        0    0.0000
    101 H         149.4892  155.0523   79.6783 H        16        0    0.0000
    102 H         150.4202  156.4638   80.1674 H        16        0    0.0000
    103 C         151.5801  154.9880   79.0511 C.3      17        0    0.0000
    104 C         151.3268  155.5891   77.6642 C.3      17        0    0.0000
    105 H         152.5475  155.3308   79.4386 H        17        0    0.0000
    106 H         151.6380  153.8946   78.9823 H        17        0    0.0000
    107 H         150.3393  155.2836   77.2965 H        17        0    0.0000
    108 H         151.3151  156.6844   77.7254 H        17        0    0.0000
    109 C         152.4119  155.1529   76.6203 C.3      18        0    0.0000
    110 C         152.1704  155.7710   75.2387 C.3      18        0    0.0000
    111 H         153.4007  155.4446   76.9953 H        18        0    0.0000
    112 H         152.4128  154.0582   76.5477 H        18        0    0.0000
    113 H         151.2328  155.3904   74.8150 H        18        0    0.0000
    114 H         152.0573  156.8586   75.3278 H        18        0    0.0000
    115 C         153.3380  155.4646   74.2385 C.3      19        0    0.0000
    116 C         153.1247  156.1312   72.8750 C.3      19        0    0.0000
    117 H         154.2816  155.8070   74.6811 H        19        0    0.0000
    118 H         153.4232  154.3777   74.1167 H        19        0    0.0000
    119 H         152.2197  155.7335   72.3993 H        19        0    0.0000
    120 H         152.9651  157.2089   73.0040 H        19        0    0.0000
    121 C         154.3406  155.9123   71.9100 C.3      20        0    0.0000
    122 C         154.5561  157.1021   70.9682 C.3      20        0    0.0000
    123 H         155.2422  155.7400   72.5108 H        20        0    0.0000
    124 H         154.1701  154.9980   71.3282 H        20        0    0.0000
    125 H         153.7822  157.1113   70.1906 H        20        0    0.0000
    126 H         154.4569  158.0436   71.5226 H        20        0    0.0000
    127 C         155.9639  157.0672   70.2795 C.3      21        0    0.0000
    128 C         156.6176  158.4524   70.2233 C.3      21        0    0.0000
    129 H         156.6086  156.3690   70.8278 H        21        0    0.0000
    130 H         155.8518  156.6627   69.2659 H        21        0    0.0000
    131 H         156.3056  158.9788   69.3127 H        21        0    0.0000
    132 H         156.2806  159.0620   71.0708 H        21        0    0.0000
    133 C         158.1829  158.3721   70.2493 C.3      22        0    0.0000
    134 C         158.7979  158.5698   68.8594 C.3      22        0    0.0000
    135 H         158.5645  159.1332   70.9411 H        22        0    0.0000
    136 H         158.4803  157.3981   70.6572 H        22        0    0.0000
    137 H         158.0478  158.3693   68.0842 H        22        0    0.0000
    138 H         159.1116  159.6133   68.7318 H        22        0    0.0000
    139 C         160.0348  157.6373   68.6189 C.3      23        0    0.0000
    140 C         161.3643  158.3818   68.7837 C.3      23        0    0.0000
    141 H         159.9852  156.7960   69.3212 H        23        0    0.0000
    142 H         159.9651  157.2104   67.6107 H        23        0    0.0000
    143 H         161.7411  158.7002   67.8038 H        23        0    0.0000
    144 H         161.2140  159.2936   69.3749 H        23        0    0.0000
    145 C         162.4561  157.5005   69.4828 C.3      24        0    0.0000
    146 C         163.4989  158.3458   70.2223 C.3      24        0    0.0000
    147 H         161.9623  156.8151   70.1828 H        24        0    0.0000
    148 H         162.9462  156.8772   68.7246 H        24        0    0.0000
    149 H         164.0562  158.9649   69.5084 H        24        0    0.0000
    150 H         163.0013  159.0352   70.9157 H        24        0    0.0000
    151 C         164.5149  157.4648   71.0280 C.3      25        0    0.0000
    152 C         165.4212  158.3052   71.9343 C.3      25        0    0.0000
    153 H         163.9541  156.7371   71.6275 H        25        0    0.0000
    154 H         165.1222  156.8880   70.3194 H        25        0    0.0000
    155 H         166.0430  158.9750   71.3275 H        25        0    0.0000
    156 H         164.8128  158.9445   72.5860 H        25        0    0.0000
    157 C         166.3562  157.4181   72.8266 C.3      26        0    0.0000
    158 C         166.7811  158.1340   74.1134 C.3      26        0    0.0000
    159 H         165.8317  156.4858   73.0705 H        26        0    0.0000
    160 H         167.2413  157.1380   72.2421 H        26        0    0.0000
    161 H         167.4226  158.9909   73.8729 H        26        0    0.0000
    162 H         165.8999  158.5351   74.6294 H        26        0    0.0000
    163 C         167.5525  157.1850   75.0943 C.3      27        0    0.0000
    164 C         167.9072  157.8783   76.4144 C.3      27        0    0.0000
    165 H         166.9346  156.2995   75.2886 H        27        0    0.0000
    166 H         168.4646  156.8302   74.5987 H        27        0    0.0000
    167 H         168.5484  158.7475   76.2223 H        27        0    0.0000
    168 H         166.9976  158.2580   76.8961 H        27        0    0.0000
    169 C         168.6433  156.9176   77.4108 C.3      28        0    0.0000
    170 C         168.9068  157.5793   78.7679 C.3      28        0    0.0000
    171 H         168.0360  156.0139   77.5445 H        28        0    0.0000
    172 H         169.5900  156.5970   76.9585 H        28        0    0.0000
    173 H         169.5687  158.4452   78.6421 H        28        0    0.0000
    174 H         167.9680  157.9591   79.1898 H        28        0    0.0000
    175 C         169.5585  156.5901   79.7946 C.3      29        0    0.0000
    176 C         169.5778  157.1592   81.2175 C.3      29        0    0.0000
    177 H         169.0034  155.6441   79.7753 H        29        0    0.0000
    178 H         170.5804  156.3625   79.4666 H        29        0    0.0000
    179 H         170.2231  158.0455   81.2595 H        29        0    0.0000
    180 H         168.5715  157.4884   81.5047 H        29        0    0.0000
    181 C         170.0866  156.1135   82.2688 C.3      30        0    0.0000
    182 C         169.8307  156.5674   83.7102 C.3      30        0    0.0000
    183 H         169.5886  155.1539   82.0826 H        30        0    0.0000
    184 H         171.1595  155.9474   82.1116 H        30        0    0.0000
    185 H         170.4155  157.4692   83.9300 H        30        0    0.0000
    186 H         168.7751  156.8376   83.8377 H        30        0    0.0000
    187 C         170.1986  155.4592   84.7562 C.3      31        0    0.0000
    188 C         169.9845  155.9286   86.1994 C.3      31        0    0.0000
    189 H         169.5904  154.5684   84.5562 H        31        0    0.0000
    190 H         171.2452  155.1660   84.6073 H        31        0    0.0000
    191 H         170.5338  156.8615   86.3769 H        31        0    0.0000
    192 H         168.9236  156.1505   86.3693 H        31        0    0.0000
    193 C         170.4513  154.8601   87.2471 C.3      32        0    0.0000
    194 C         170.2401  155.3308   88.6903 C.3      32        0    0.0000
    195 H         169.9003  153.9279   87.0710 H        32        0    0.0000
    196 H         171.5116  154.6365   87.0757 H        32        0    0.0000
    197 H         170.7514  156.2878   88.8525 H        32        0    0.0000
    198 H         169.1734  155.5081   88.8758 H        32        0    0.0000
    199 C         170.7691  154.2913   89.7377 C.3      33        0    0.0000
    200 C         170.5518  154.7590   91.1810 C.3      33        0    0.0000
    201 H         170.2614  153.3330   89.5723 H        33        0    0.0000
    202 H         171.8369  154.1177   89.5553 H        33        0    0.0000
    203 H         170.7846  153.9454   91.8791 H        33        0    0.0000
    204 H         171.2374  155.5824   91.4169 H        33        0    0.0000
    205 C         169.0809  155.2376   91.4353 C.3      34        0    0.0000
    206 C         168.9024  155.8512   92.8284 C.3      34        0    0.0000
    207 H         168.8087  155.9691   90.6644 H        34        0    0.0000
    208 H         168.4044  154.3828   91.3113 H        34        0    0.0000
    209 H         168.7492  156.9344   92.7455 H        34        0    0.0000
    210 H         168.0044  155.4419   93.3075 H        34        0    0.0000
    211 C         170.1367  155.5851   93.7574 C.3      35        0    0.0000
    212 C         169.8459  155.9289   95.2224 C.3      35        0    0.0000
    213 H         170.4252  154.5304   93.6686 H        35        0    0.0000
    214 H         170.9867  156.1759   93.3940 H        35        0    0.0000
    215 H         169.9894  157.0032   95.3924 H        35        0    0.0000
    216 H         168.7973  155.7098   95.4592 H        35        0    0.0000
    217 C         170.7644  155.1335   96.2130 C.3      36        0    0.0000
    218 C         170.4568  155.4589   97.6787 C.3      36        0    0.0000
    219 H         170.6343  154.0595   96.0307 H        36        0    0.0000
    220 H         171.8125  155.3666   95.9878 H        36        0    0.0000
    221 H         171.0113  154.7806   98.3390 H        36        0    0.0000
    222 H         170.7934  156.4755   97.9170 H        36        0    0.0000
    223 C         168.9278  155.3435   98.0047 C.3      37        0    0.0000
    224 C         168.6273  155.6117   99.4835 C.3      37        0    0.0000
    225 H         168.3773  156.0528   97.3744 H        37        0    0.0000
    226 H         168.5817  154.3403   97.7264 H        37        0    0.0000
    227 H         167.8724  156.4022   99.5766 H        37        0    0.0000
    228 H         168.2027  154.7141   99.9499 H        37        0    0.0000
    229 C         169.9071  156.0386  100.2819 C.3      38        0    0.0000
    230 C         169.6702  156.0504  101.7960 C.3      38        0    0.0000
    231 H         170.7244  155.3498  100.0344 H        38        0    0.0000
    232 H         170.2201  157.0337   99.9423 H        38        0    0.0000
    233 H         169.3566  157.0505  102.1199 H        38        0    0.0000
    234 H         168.8533  155.3651  102.0543 H        38        0    0.0000
    235 C         170.9502  155.6368  102.6010 C.3      39        0    0.0000
    236 C         170.7188  155.6669  104.1157 C.3      39        0    0.0000
    237 H         171.2558  154.6311  102.2870 H        39        0    0.0000
    238 H         171.7708  156.3136  102.3323 H        39        0    0.0000
    239 H         170.0639  154.8384  104.4128 H        39        0    0.0000
    240 H         171.6691  155.5225  104.6444 H        39        0    0.0000
    241 C         170.0756  157.0150  104.5918 C.3      40        0    0.0000
    242 C         169.7337  156.9997  106.0858 C.3      40        0    0.0000
    243 H         170.7708  157.8351  104.3733 H        40        0    0.0000
    244 H         169.1707  157.2032  104.0007 H        40        0    0.0000
    245 H         170.1361  157.8966  106.5729 H        40        0    0.0000
    246 H         168.6456  157.0280  106.2230 H        40        0    0.0000
    247 C         170.3019  155.7321  106.8123 C.3      41        0    0.0000
    248 C         170.0704  155.7780  108.3267 C.3      41        0    0.0000
    249 H         169.8288  154.8387  106.3864 H        41        0    0.0000
    250 H         171.3749  155.6529  106.5980 H        41        0    0.0000
    251 H         169.2601  156.4790  108.5623 H        41        0    0.0000
    252 H         169.7501  154.7931  108.6883 H        41        0    0.0000
    253 C         171.3568  156.2105  109.1114 C.3      42        0    0.0000
    254 C         171.1371  156.2168  110.6283 C.3      42        0    0.0000
    255 H         172.1752  155.5273  108.8527 H        42        0    0.0000
    256 H         171.6599  157.2084  108.7711 H        42        0    0.0000
    257 H         172.0892  156.3889  111.1455 H        42        0    0.0000
    258 H         170.4724  157.0432  110.9087 H        42        0    0.0000
    259 C         170.5175  154.8725  111.1444 C.3      43        0    0.0000
    260 C         170.0481  154.9704  112.6001 C.3      43        0    0.0000
    261 H         169.6763  154.5988  110.4955 H        43        0    0.0000
    262 H         171.2655  154.0764  111.0431 H        43        0    0.0000
    263 H         168.9538  155.0376  112.6388 H        43        0    0.0000
    264 H         170.3275  154.0616  113.1474 H        43        0    0.0000
    265 C         170.6569  156.2121  113.3384 C.3      44        0    0.0000
    266 C         170.2920  156.2394  114.8267 C.3      44        0    0.0000
    267 H         171.7472  156.1951  113.2187 H        44        0    0.0000
    268 H         170.3002  157.1257  112.8468 H        44        0    0.0000
    269 H         170.7873  157.0849  115.3200 H        44        0    0.0000
    270 H         169.2124  156.3932  114.9466 H        44        0    0.0000
    271 C         170.6986  154.9162  115.5625 C.3      45        0    0.0000
    272 C         170.4104  154.9759  117.0666 C.3      45        0    0.0000
    273 H         170.1557  154.0780  115.1084 H        45        0    0.0000
    274 H         171.7661  154.7300  115.3911 H        45        0    0.0000
    275 H         169.8128  154.1073  117.3699 H        45        0    0.0000
    276 H         171.3493  154.9252  117.6318 H        45        0    0.0000
    277 C         169.6455  156.2823  117.4736 C.3      46        0    0.0000
    278 C         169.5448  156.4467  118.9941 C.3      46        0    0.0000
    279 H         170.1617  157.1454  117.0353 H        46        0    0.0000
    280 H         168.6421  156.2572  117.0307 H        46        0    0.0000
    281 H         170.2114  157.2504  119.3305 H        46        0    0.0000
    282 H         168.5265  156.7442  119.2737 H        46        0    0.0000
    283 C         169.9147  155.1298  119.7598 C.3      47        0    0.0000
    284 C         169.9303  155.3264  121.2797 C.3      47        0    0.0000
    285 H         169.1935  154.3488  119.4889 H        47        0    0.0000
    286 H         170.8973  154.7844  119.4151 H        47        0    0.0000
    287 H         168.9128  155.5124  121.6454 H        47        0    0.0000
    288 H         170.2803  154.4116  121.7738 H        47        0    0.0000
    289 C         170.8496  156.5193  121.7150 C.3      48        0    0.0000
    290 C         170.7170  156.8401  123.2079 C.3      48        0    0.0000
    291 H         171.8905  156.2693  121.4750 H        48        0    0.0000
    292 H         170.5914  157.4015  121.1163 H        48        0    0.0000
    293 H         169.6761  157.0900  123.4478 H        48        0    0.0000
    294 H         170.9752  155.9578  123.8066 H        48        0    0.0000
    295 H         171.3562  157.6695  123.5105 H        48        0    0.0000
    296 H         149.2798  157.1087  121.7450 H         0        0    0.0000
@<TRIPOS>BOND
     1     1     2      1
     2     1     3      1
     3     1     4      1
     4     1   296      H
     5     2     5      1
     6     2     6      1
     7     2     7      1
     8     7     8      1
     9     7     9      1
    10     7    10      1
    11     8    11      1
    12     8    12      1
    13     8    13      1
    14    13    14      1
    15    13    15      1
    16    13    16      1
    17    14    17      1
    18    14    18      1
    19    14    19      1
    20    19    20      1
    21    19    21      1
    22    19    22      1
    23    20    23      1
    24    20    24      1
    25    20    25      1
    26    25    26      1
    27    25    27      1
    28    25    28      1
    29    26    29      1
    30    26    30      1
    31    26    31      1
    32    31    32      1
    33    31    33      1
    34    31    34      1
    35    32    35      1
    36    32    36      1
    37    32    37      1
    38    37    38      1
    39    37    39      1
    40    37    40      1
    41    38    41      1
    42    38    42      1
    43    38    43      1
    44    43    44      1
    45    43    45      1
    46    43    46      1
    47    44    47      1
    48    44    48      1
    49    44    49      1
    50    49    50      1
    51    49    51      1
    52    49    52      1
    53    50    53      1
    54    50    54      1
    55    50    55      1
    56    55    56      1
    57    55    57      1
    58    55    58      1
    59    56    59      1
    60    56    60      1
    61    56    61      1
    62    61    62      1
    63    61    63      1
    64    61    64      1
    65    62    65      1
    66    62    66      1
    67    62    67      1
    68    67    68      1
    69    67    69      1
    70    67    70      1
    71    68    71      1
    72    68    72      1
    73    68    73      1
    74    73    74      1
    75    73    75      1
    76    73    76      1
    77    74    77      1
    78    74    78      1
    79    74    79      1
    80    79    80      1
    81    79    81      1
    82    79    82      1
    83    80    83      1
    84    80    84      1
    85    80    85      1
    86    85    86      1
    87    85    87      1
    88    85    88      1
    89    86    89      1
    90    86    90      1
    91    86    91      1
    92    91    92      1
    93    91    93      1
    94    91    94      1
    95    92    95      1
    96    92    96      1
    97    92    97      1
    98    97    98      1
    99    97    99      1
   100    97   100      1
   101    98   101      1
   102    98   102      1
   103    98   103      1
   104   103   104      1
   105   103   105      1
   106   103   106      1
   107   104   107      1
   108   104   108      1
   109   104   109      1
   110   109   110      1
   111   109   111      1
   112   109   112      1
   113   110   113      1
   114   110   114      1
   115   110   115      1
   116   115   116      1
   117   115   117      1
   118   115   118      1
   119   116   119      1
   120   116   120      1
   121   116   121      1
   122   121   122      1
   123   121   123      1
   124   121   124      1
   125   122   125      1
   126   122   126      1
   127   122   127      1
   128   127   128      1
   129   127   129      1
   130   127   130      1
   131   128   131      1
   132   128   132      1
   133   128   133      1
   134   133   134      1
   135   133   135      1
   136   133   136      1
   137   134   137      1
   138   134   138      1
   139   134   139      1
   140   139   140      1
   141   139   141      1
   142   139   142      1
   143   140   143      1
   144   140   144      1
   145   140   145      1
   146   145   146      1
   147   145   147      1
   148   145   148      1
   149   146   149      1
   150   146   150      1
   151   146   151      1
   152   151   152      1
   153   151   153      1
   154   151   154      1
   155   152   155      1
   156   152   156      1
   157   152   157      1
   158   157   158      1
   159   157   159      1
   160   157   160      1
   161   158   161      1
   162   158   162      1
   163   158   163      1
   164   163   164      1
   165   163   165      1
   166   163   166      1
   167   164   167      1
   168   164   168      1
   169   164   169      1
   170   169   170      1
   171   169   171      1
   172   169   172      1
   173   170   173      1
   174   170   174      1
   175   170   175      1
   176   175   176      1
   177   175   177      1
   178   175   178      1
   179   176   179      1
   180   176   180      1
   181   176   181      1
   182   181   182      1
   183   181   183      1
   184   181   184      1
   185   182   185      1
   186   182   186      1
   187   182   187      1
   188   187   188      1
   189   187   189      1
   190   187   190      1
   191   188   191      1
   192   188   192      1
   193   188   193      1
   194   193   194      1
   195   193   195      1
   196   193   196      1
   197   194   197      1
   198   194   198      1
   199   194   199      1
   200   199   200      1
   201   199   201      1
   202   199   202      1
   203   200   203      1
   204   200   204      1
   205   200   205      1
   206   205   206      1
   207   205   207      1
   208   205   208      1
   209   206   209      1
   210   206   210      1
   211   206   211      1
   212   211   212      1
   213   211   213      1
   214   211   214      1
   215   212   215      1
   216   212   216      1
   217   212   217      1
   218   217   218      1
   219   217   219      1
   220   217   220      1
   221   218   221      1
   222   218   222      1
   223   218   223      1
   224   223   224      1
   225   223   225      1
   226   223   226      1
   227   224   227      1
   228   224   228      1
   229   224   229      1
   230   229   230      1
   231   229   231      1
   232   229   232      1
   233   230   233      1
   234   230   234      1
   235   230   235      1
   236   235   236      1
   237   235   237      1
   238   235   238      1
   239   236   239      1
   240   236   240      1
   241   236   241      1
   242   241   242      1
   243   241   243      1
   244   241   244      1
   245   242   245      1
   246   242   246      1
   247   242   247      1
   248   247   248      1
   249   247   249      1
   250   247   250      1
   251   248   251      1
   252   248   252      1
   253   248   253      1
   254   253   254      1
   255   253   255      1
   256   253   256      1
   257   254   257      1
   258   254   258      1
   259   254   259      1
   260   259   260      1
   261   259   261      1
   262   259   262      1
   263   260   263      1
   264   260   264      1
   265   260   265      1
   266   265   266      1
   267   265   267      1
   268   265   268      1
   269   266   269      1
   270   266   270      1
   271   266   271      1
   272   271   272      1
   273   271   273      1
   274   271   274      1
   275   272   275      1
   276   272   276      1
   277   272   277      1
   278   277   278      1
   279   277   279      1
   280   277   280      1
   281   278   281      1
   282   278   282      1
   283   278   283      1
   284   283   284      1
   285   283   285      1
   286   283   286      1
   287   284   287      1
   288   284   288      1
   289   284   289      1
   290   289   290      1
   291   289   291      1
   292   289   292      1
   293   290   293      1
   294   290   294      1
   295   290   295      H
