###
### Created by PolyChef-cpp17 on Thu Feb 27 19:40:30 2025
###

@<TRIPOS>MOLECULE
NO_INFO
182 181 1 0 0
SMALL
USER_CHARGES


@<TRIPOS>ATOM
      1 C          -0.7202   70.5087  120.6551 C.3       0        0    0.0000
      2 C          -1.5487   69.3575  120.0742 C.3       0        0    0.0000
      3 H          -1.1125   71.4702  120.3015 H         0        0    0.0000
      4 H           0.3161   70.4421  120.3014 H         0        0    0.0000
      5 H          -1.5932   68.5275  120.7902 H         0        0    0.0000
      6 H          -2.5823   69.6850  119.9069 H         0        0    0.0000
      7 C          -0.9615   68.8267  118.7211 C.3       1        0    0.0000
      8 C          -0.3661   69.9504  117.8657 C.3       1        0    0.0000
      9 H          -0.1944   68.0736  118.9398 H         1        0    0.0000
     10 H          -1.7576   68.3138  118.1672 H         1        0    0.0000
     11 H          -1.0594   70.7997  117.8248 H         1        0    0.0000
     12 H           0.5596   70.3211  118.3231 H         1        0    0.0000
     13 C          -0.0544   69.4819  116.4026 C.3       2        0    0.0000
     14 C          -0.1179   70.6366  115.3969 C.3       2        0    0.0000
     15 H           0.9409   69.0207  116.3835 H         2        0    0.0000
     16 H          -0.7698   68.6989  116.1220 H         2        0    0.0000
     17 H          -1.0404   71.2122  115.5427 H         2        0    0.0000
     18 H           0.7158   71.3294  115.5664 H         2        0    0.0000
     19 C          -0.0644   70.1354  113.9125 C.3       3        0    0.0000
     20 C          -0.1820   71.2855  112.9064 C.3       3        0    0.0000
     21 H           0.8765   69.5934  113.7560 H         3        0    0.0000
     22 H          -0.8744   69.4126  113.7540 H         3        0    0.0000
     23 H          -1.1188   71.8330  113.0687 H         3        0    0.0000
     24 H           0.6331   72.0038  113.0592 H         3        0    0.0000
     25 C          -0.1410   70.7830  111.4221 C.3       4        0    0.0000
     26 C          -0.1909   71.9382  110.4161 C.3       4        0    0.0000
     27 H           0.7724   70.1938  111.2733 H         4        0    0.0000
     28 H          -0.9854   70.1026  111.2557 H         4        0    0.0000
     29 H          -1.1077   72.5233  110.5603 H         4        0    0.0000
     30 H           0.6495   72.6224  110.5870 H         4        0    0.0000
     31 C          -0.1400   71.4362  108.9319 C.3       5        0    0.0000
     32 C          -1.2309   72.0746  108.0651 C.3       5        0    0.0000
     33 H           0.8501   71.6609  108.5164 H         5        0    0.0000
     34 H          -0.2445   70.3442  108.9242 H         5        0    0.0000
     35 H          -2.1853   72.0815  108.6061 H         5        0    0.0000
     36 H          -0.9801   73.1219  107.8555 H         5        0    0.0000
     37 C          -1.4265   71.3200  106.7050 C.3       6        0    0.0000
     38 C          -1.1524   72.2213  105.4960 C.3       6        0    0.0000
     39 H          -0.7590   70.4497  106.6844 H         6        0    0.0000
     40 H          -2.4516   70.9319  106.6601 H         6        0    0.0000
     41 H          -2.0762   72.7247  105.1850 H         6        0    0.0000
     42 H          -0.4402   73.0100  105.7686 H         6        0    0.0000
     43 C          -0.5779   71.4211  104.2766 C.3       7        0    0.0000
     44 C          -1.2486   71.8144  102.9558 C.3       7        0    0.0000
     45 H           0.5034   71.5966  104.2162 H         7        0    0.0000
     46 H          -0.7130   70.3484  104.4623 H         7        0    0.0000
     47 H          -2.3385   71.8366  103.0794 H         7        0    0.0000
     48 H          -0.9438   72.8277  102.6662 H         7        0    0.0000
     49 C          -0.8921   70.8273  101.7914 C.3       8        0    0.0000
     50 C          -1.0827   71.4647  100.4106 C.3       8        0    0.0000
     51 H           0.1471   70.4974  101.9131 H         8        0    0.0000
     52 H          -1.5195   69.9320  101.8822 H         8        0    0.0000
     53 H          -2.1408   71.7062  100.2506 H         8        0    0.0000
     54 H          -0.5315   72.4116  100.3541 H         8        0    0.0000
     55 C          -0.5974   70.5275   99.2515 C.3       9        0    0.0000
     56 C          -0.8802   71.1216   97.8672 C.3       9        0    0.0000
     57 H           0.4779   70.3459   99.3704 H         9        0    0.0000
     58 H          -1.0942   69.5546   99.3519 H         9        0    0.0000
     59 H          -1.9530   71.3223   97.7560 H         9        0    0.0000
     60 H          -0.3667   72.0851   97.7593 H         9        0    0.0000
     61 C          -0.4210   70.1716   96.7079 C.3      10        0    0.0000
     62 C          -0.7167   70.7594   95.3237 C.3      10        0    0.0000
     63 H           0.6539   69.9793   96.8131 H        10        0    0.0000
     64 H          -0.9267   69.2047   96.8218 H        10        0    0.0000
     65 H          -1.7916   70.9522   95.2187 H        10        0    0.0000
     66 H          -0.2107   71.7261   95.2096 H        10        0    0.0000
     67 C          -0.2581   69.8091   94.1644 C.3      11        0    0.0000
     68 C          -0.5464   70.4004   92.7801 C.3      11        0    0.0000
     69 H           0.8155   69.6115   94.2728 H        11        0    0.0000
     70 H          -0.7687   68.8444   94.2751 H        11        0    0.0000
     71 H          -1.6210   70.5913   92.6690 H        11        0    0.0000
     72 H          -0.0418   71.3685   92.6721 H        11        0    0.0000
     73 C          -0.0786   69.4546   91.6208 C.3      12        0    0.0000
     74 C          -0.3751   70.0419   90.2365 C.3      12        0    0.0000
     75 H           0.9973   69.2691   91.7281 H        12        0    0.0000
     76 H          -0.5783   68.4843   91.7326 H        12        0    0.0000
     77 H          -1.4509   70.2283   90.1295 H        12        0    0.0000
     78 H           0.1253   71.0117   90.1244 H        12        0    0.0000
     79 C           0.0915   69.0955   89.0772 C.3      13        0    0.0000
     80 C          -0.2019   69.6844   87.6930 C.3      13        0    0.0000
     81 H           1.1668   68.9070   89.1857 H        13        0    0.0000
     82 H          -0.4109   68.1265   89.1880 H        13        0    0.0000
     83 H          -1.2781   69.8658   87.5817 H        13        0    0.0000
     84 H           0.2943   70.6568   87.5850 H        13        0    0.0000
     85 C           0.2743   68.7427   86.5337 C.3      14        0    0.0000
     86 C          -0.0283   69.3269   85.1494 C.3      14        0    0.0000
     87 H           1.3520   68.5675   86.6405 H        14        0    0.0000
     88 H          -0.2161   67.7678   86.6459 H        14        0    0.0000
     89 H          -1.1075   69.4895   85.0375 H        14        0    0.0000
     90 H           0.4509   70.3079   85.0422 H        14        0    0.0000
     91 C           0.4650   68.3941   83.9901 C.3      15        0    0.0000
     92 C           0.1484   68.9709   82.6059 C.3      15        0    0.0000
     93 H           1.5462   68.2408   84.0954 H        15        0    0.0000
     94 H          -0.0053   67.4096   84.1039 H        15        0    0.0000
     95 H          -0.9377   69.0367   82.4652 H        15        0    0.0000
     96 H           0.5389   69.9930   82.5259 H        15        0    0.0000
     97 C           0.7563   68.1058   81.4485 C.3      16        0    0.0000
     98 C           0.4313   68.6771   80.0640 C.3      16        0    0.0000
     99 H           1.8431   68.0460   81.5851 H        16        0    0.0000
    100 H           0.3714   67.0819   81.5328 H        16        0    0.0000
    101 H           0.7476   67.9742   79.2833 H        16        0    0.0000
    102 H          -0.6530   68.8030   79.9540 H        16        0    0.0000
    103 C           1.1284   70.0585   79.8127 C.3      17        0    0.0000
    104 C           1.1048   70.4607   78.3340 C.3      17        0    0.0000
    105 H           0.6267   70.8232   80.4186 H        17        0    0.0000
    106 H           2.1639   70.0023   80.1708 H        17        0    0.0000
    107 H           1.1477   69.5663   77.7002 H        17        0    0.0000
    108 H           0.1620   70.9694   78.0975 H        17        0    0.0000
    109 C           2.2972   71.4055   77.9561 C.3      18        0    0.0000
    110 C           2.2799   71.7987   76.4748 C.3      18        0    0.0000
    111 H           2.2496   72.3037   78.5842 H        18        0    0.0000
    112 H           3.2399   70.9001   78.2001 H        18        0    0.0000
    113 H           2.3121   70.8998   75.8466 H        18        0    0.0000
    114 H           1.3438   72.3177   76.2343 H        18        0    0.0000
    115 C           3.4845   72.7260   76.0921 C.3      19        0    0.0000
    116 C           3.4671   73.1191   74.6108 C.3      19        0    0.0000
    117 H           3.4523   73.6248   76.7203 H        19        0    0.0000
    118 H           4.4206   72.2069   76.3326 H        19        0    0.0000
    119 H           3.4979   72.2202   73.9827 H        19        0    0.0000
    120 H           2.5316   73.6394   74.3707 H        19        0    0.0000
    121 C           4.6729   74.0448   74.2277 C.3      20        0    0.0000
    122 C           4.6544   74.4396   72.7469 C.3      20        0    0.0000
    123 H           4.6429   74.9431   74.8568 H        20        0    0.0000
    124 H           5.6084   73.5240   74.4665 H        20        0    0.0000
    125 H           4.6861   73.5415   72.1177 H        20        0    0.0000
    126 H           3.7181   74.9590   72.5076 H        20        0    0.0000
    127 C           5.8588   75.3673   72.3643 C.3      21        0    0.0000
    128 C           5.8416   75.7602   70.8829 C.3      21        0    0.0000
    129 H           5.8261   76.2663   72.9922 H        21        0    0.0000
    130 H           6.7950   74.8487   72.6051 H        21        0    0.0000
    131 H           5.8738   74.8612   70.2549 H        21        0    0.0000
    132 H           4.9056   76.2792   70.6422 H        21        0    0.0000
    133 C           7.0463   76.6873   70.5001 C.3      22        0    0.0000
    134 C           7.0290   77.0804   69.0188 C.3      22        0    0.0000
    135 H           7.0142   77.5862   71.1282 H        22        0    0.0000
    136 H           7.9824   76.1682   70.7407 H        22        0    0.0000
    137 H           7.0621   76.1815   68.3908 H        22        0    0.0000
    138 H           6.0926   77.5986   68.7781 H        22        0    0.0000
    139 C           8.2330   78.0086   68.6364 C.3      23        0    0.0000
    140 C           8.2163   78.4007   67.1548 C.3      23        0    0.0000
    141 H           8.1995   78.9078   69.2639 H        23        0    0.0000
    142 H           9.1695   77.4906   68.8779 H        23        0    0.0000
    143 H           8.2487   77.5014   66.5273 H        23        0    0.0000
    144 H           7.2804   78.9197   66.9136 H        23        0    0.0000
    145 C           9.4212   79.3277   66.7720 C.3      24        0    0.0000
    146 C           9.4042   79.7203   65.2906 C.3      24        0    0.0000
    147 H           9.3891   80.2267   67.3999 H        24        0    0.0000
    148 H          10.3572   78.8085   67.0128 H        24        0    0.0000
    149 H           8.5958   80.4373   65.1008 H        24        0    0.0000
    150 H          10.3414   80.2245   65.0243 H        24        0    0.0000
    151 C           9.2119   78.4812   64.3497 C.3      25        0    0.0000
    152 C           8.8729   78.8906   62.9122 C.3      25        0    0.0000
    153 H          10.1301   77.8810   64.3634 H        25        0    0.0000
    154 H           8.4151   77.8474   64.7582 H        25        0    0.0000
    155 H           9.7068   79.4536   62.4749 H        25        0    0.0000
    156 H           8.7346   77.9979   62.2896 H        25        0    0.0000
    157 C           7.5755   79.7669   62.8342 C.3      26        0    0.0000
    158 C           6.5674   79.2229   61.8160 C.3      26        0    0.0000
    159 H           7.1178   79.8105   63.8303 H        26        0    0.0000
    160 H           7.8578   80.7941   62.5721 H        26        0    0.0000
    161 H           5.8578   80.0099   61.5318 H        26        0    0.0000
    162 H           7.0861   78.9199   60.8981 H        26        0    0.0000
    163 C           5.7652   77.9959   62.3716 C.3      27        0    0.0000
    164 C           4.2553   78.1418   62.1527 C.3      27        0    0.0000
    165 H           6.1299   77.0842   61.8823 H        27        0    0.0000
    166 H           5.9814   77.8873   63.4416 H        27        0    0.0000
    167 H           4.0605   78.8319   61.3224 H        27        0    0.0000
    168 H           3.8214   77.1754   61.8675 H        27        0    0.0000
    169 C           3.5178   78.6691   63.4315 C.3      28        0    0.0000
    170 C           2.3728   77.7464   63.8637 C.3      28        0    0.0000
    171 H           4.2476   78.7692   64.2446 H        28        0    0.0000
    172 H           3.1330   79.6761   63.2279 H        28        0    0.0000
    173 H           1.4981   78.3422   64.1523 H        28        0    0.0000
    174 H           2.0605   77.1152   63.0225 H        28        0    0.0000
    175 C           2.7747   76.8239   65.0657 C.3      29        0    0.0000
    176 C           1.8533   77.0123   66.2759 C.3      29        0    0.0000
    177 H           2.7498   75.7788   64.7330 H        29        0    0.0000
    178 H           3.8130   77.0406   65.3461 H        29        0    0.0000
    179 H           1.8782   78.0574   66.6085 H        29        0    0.0000
    180 H           0.8150   76.7955   65.9955 H        29        0    0.0000
    181 H           2.1327   76.3708   67.1116 H        29        0    0.0000
    182 H          -0.7202   70.5087  121.7450 H         0        0    0.0000
@<TRIPOS>BOND
     1     1     2      1
     2     1     3      1
     3     1     4      1
     4     1   182      H
     5     2     5      1
     6     2     6      1
     7     2     7      1
     8     7     8      1
     9     7     9      1
    10     7    10      1
    11     8    11      1
    12     8    12      1
    13     8    13      1
    14    13    14      1
    15    13    15      1
    16    13    16      1
    17    14    17      1
    18    14    18      1
    19    14    19      1
    20    19    20      1
    21    19    21      1
    22    19    22      1
    23    20    23      1
    24    20    24      1
    25    20    25      1
    26    25    26      1
    27    25    27      1
    28    25    28      1
    29    26    29      1
    30    26    30      1
    31    26    31      1
    32    31    32      1
    33    31    33      1
    34    31    34      1
    35    32    35      1
    36    32    36      1
    37    32    37      1
    38    37    38      1
    39    37    39      1
    40    37    40      1
    41    38    41      1
    42    38    42      1
    43    38    43      1
    44    43    44      1
    45    43    45      1
    46    43    46      1
    47    44    47      1
    48    44    48      1
    49    44    49      1
    50    49    50      1
    51    49    51      1
    52    49    52      1
    53    50    53      1
    54    50    54      1
    55    50    55      1
    56    55    56      1
    57    55    57      1
    58    55    58      1
    59    56    59      1
    60    56    60      1
    61    56    61      1
    62    61    62      1
    63    61    63      1
    64    61    64      1
    65    62    65      1
    66    62    66      1
    67    62    67      1
    68    67    68      1
    69    67    69      1
    70    67    70      1
    71    68    71      1
    72    68    72      1
    73    68    73      1
    74    73    74      1
    75    73    75      1
    76    73    76      1
    77    74    77      1
    78    74    78      1
    79    74    79      1
    80    79    80      1
    81    79    81      1
    82    79    82      1
    83    80    83      1
    84    80    84      1
    85    80    85      1
    86    85    86      1
    87    85    87      1
    88    85    88      1
    89    86    89      1
    90    86    90      1
    91    86    91      1
    92    91    92      1
    93    91    93      1
    94    91    94      1
    95    92    95      1
    96    92    96      1
    97    92    97      1
    98    97    98      1
    99    97    99      1
   100    97   100      1
   101    98   101      1
   102    98   102      1
   103    98   103      1
   104   103   104      1
   105   103   105      1
   106   103   106      1
   107   104   107      1
   108   104   108      1
   109   104   109      1
   110   109   110      1
   111   109   111      1
   112   109   112      1
   113   110   113      1
   114   110   114      1
   115   110   115      1
   116   115   116      1
   117   115   117      1
   118   115   118      1
   119   116   119      1
   120   116   120      1
   121   116   121      1
   122   121   122      1
   123   121   123      1
   124   121   124      1
   125   122   125      1
   126   122   126      1
   127   122   127      1
   128   127   128      1
   129   127   129      1
   130   127   130      1
   131   128   131      1
   132   128   132      1
   133   128   133      1
   134   133   134      1
   135   133   135      1
   136   133   136      1
   137   134   137      1
   138   134   138      1
   139   134   139      1
   140   139   140      1
   141   139   141      1
   142   139   142      1
   143   140   143      1
   144   140   144      1
   145   140   145      1
   146   145   146      1
   147   145   147      1
   148   145   148      1
   149   146   149      1
   150   146   150      1
   151   146   151      1
   152   151   152      1
   153   151   153      1
   154   151   154      1
   155   152   155      1
   156   152   156      1
   157   152   157      1
   158   157   158      1
   159   157   159      1
   160   157   160      1
   161   158   161      1
   162   158   162      1
   163   158   163      1
   164   163   164      1
   165   163   165      1
   166   163   166      1
   167   164   167      1
   168   164   168      1
   169   164   169      1
   170   169   170      1
   171   169   171      1
   172   169   172      1
   173   170   173      1
   174   170   174      1
   175   170   175      1
   176   175   176      1
   177   175   177      1
   178   175   178      1
   179   176   179      1
   180   176   180      1
   181   176   181      H
