###
### Created by PolyChef-cpp17 on Thu Feb 27 19:40:28 2025
###

@<TRIPOS>MOLECULE
NO_INFO
332 331 1 0 0
SMALL
USER_CHARGES


@<TRIPOS>ATOM
      1 C          -0.7202  174.4287  -39.3449 C.3       0        0    0.0000
      2 C          -2.1294  174.2682  -38.7641 C.3       0        0    0.0000
      3 H          -0.0729  173.6166  -38.9913 H         0        0    0.0000
      4 H          -0.2720  175.3655  -38.9913 H         0        0    0.0000
      5 H          -2.6282  175.2439  -38.7120 H         0        0    0.0000
      6 H          -2.7386  173.6378  -39.4237 H         0        0    0.0000
      7 C          -2.1126  173.6321  -37.3314 C.3       1        0    0.0000
      8 C          -0.8345  173.9755  -36.5584 C.3       1        0    0.0000
      9 H          -2.9925  173.9833  -36.7783 H         1        0    0.0000
     10 H          -2.2139  172.5439  -37.4264 H         1        0    0.0000
     11 H           0.0454  173.8007  -37.1899 H         1        0    0.0000
     12 H          -0.8278  175.0409  -36.2968 H         1        0    0.0000
     13 C          -0.6896  173.1318  -35.2452 C.3       2        0    0.0000
     14 C           0.2048  173.8201  -34.2082 C.3       2        0    0.0000
     15 H          -1.6879  172.9578  -34.8247 H         2        0    0.0000
     16 H          -0.2796  172.1469  -35.5010 H         2        0    0.0000
     17 H           1.2600  173.7025  -34.4843 H         2        0    0.0000
     18 H           0.0015  174.8980  -34.1924 H         2        0    0.0000
     19 C          -0.0071  173.2448  -32.7654 C.3       3        0    0.0000
     20 C           0.6136  174.1391  -31.6866 C.3       3        0    0.0000
     21 H          -1.0832  173.1296  -32.5852 H         3        0    0.0000
     22 H           0.4297  172.2396  -32.7179 H         3        0    0.0000
     23 H           1.7028  174.1786  -31.8115 H         3        0    0.0000
     24 H           0.2468  175.1675  -31.7936 H         3        0    0.0000
     25 C           0.2890  173.6352  -30.2381 C.3       4        0    0.0000
     26 C           0.8882  174.5438  -29.1590 C.3       4        0    0.0000
     27 H          -0.8001  173.5779  -30.1193 H         4        0    0.0000
     28 H           0.6724  172.6135  -30.1249 H         4        0    0.0000
     29 H           1.9779  174.5972  -29.2748 H         4        0    0.0000
     30 H           0.5086  175.5665  -29.2751 H         4        0    0.0000
     31 C           0.5579  174.0436  -27.7105 C.3       5        0    0.0000
     32 C           1.1550  174.9537  -26.6315 C.3       5        0    0.0000
     33 H          -0.5317  173.9884  -27.5954 H         5        0    0.0000
     34 H           0.9392  173.0216  -27.5938 H         5        0    0.0000
     35 H           2.2448  175.0072  -26.7453 H         5        0    0.0000
     36 H           0.7753  175.9762  -26.7496 H         5        0    0.0000
     37 C           0.8221  174.4552  -25.1830 C.3       6        0    0.0000
     38 C           1.4633  175.3351  -24.1042 C.3       6        0    0.0000
     39 H          -0.2675  174.4388  -25.0564 H         6        0    0.0000
     40 H           1.1672  173.4192  -25.0776 H         6        0    0.0000
     41 H           2.5525  175.3557  -24.2340 H         6        0    0.0000
     42 H           1.1143  176.3701  -24.2065 H         6        0    0.0000
     43 C           1.1364  174.8324  -22.6558 C.3       7        0    0.0000
     44 C           1.0917  175.9787  -21.6394 C.3       7        0    0.0000
     45 H           0.1735  174.3070  -22.6728 H         7        0    0.0000
     46 H           1.8923  174.0952  -22.3583 H         7        0    0.0000
     47 H           2.0864  176.4301  -21.5376 H         7        0    0.0000
     48 H           0.4212  176.7709  -21.9951 H         7        0    0.0000
     49 C           0.6061  175.5020  -20.2272 C.3       8        0    0.0000
     50 C           1.5801  175.9007  -19.1130 C.3       8        0    0.0000
     51 H          -0.3850  175.9294  -20.0312 H         8        0    0.0000
     52 H           0.4813  174.4122  -20.2455 H         8        0    0.0000
     53 H           2.6140  175.8212  -19.4709 H         8        0    0.0000
     54 H           1.4231  176.9500  -18.8338 H         8        0    0.0000
     55 C           1.4179  175.0080  -17.8346 C.3       9        0    0.0000
     56 C           1.1597  175.8404  -16.5738 C.3       9        0    0.0000
     57 H           0.5916  174.3048  -17.9968 H         9        0    0.0000
     58 H           2.3250  174.4043  -17.7074 H         9        0    0.0000
     59 H           2.0897  176.3177  -16.2412 H         9        0    0.0000
     60 H           0.4523  176.6492  -16.7954 H         9        0    0.0000
     61 C           0.5868  174.9760  -15.3982 C.3      10        0    0.0000
     62 C           1.0325  175.4934  -14.0261 C.3      10        0    0.0000
     63 H          -0.5084  174.9739  -15.4619 H        10        0    0.0000
     64 H           0.9121  173.9369  -15.5322 H        10        0    0.0000
     65 H           2.1202  175.6359  -14.0129 H        10        0    0.0000
     66 H           0.5838  176.4752  -13.8304 H        10        0    0.0000
     67 C           0.6367  174.5166  -12.8656 C.3      11        0    0.0000
     68 C           0.8985  175.1220  -11.4821 C.3      11        0    0.0000
     69 H          -0.4243  174.2572  -12.9681 H        11        0    0.0000
     70 H           1.2018  173.5833  -12.9808 H        11        0    0.0000
     71 H           1.9664  175.3437  -11.3644 H        11        0    0.0000
     72 H           0.3659  176.0759  -11.3820 H        11        0    0.0000
     73 C           0.4494  174.1685  -10.3217 C.3      12        0    0.0000
     74 C           0.7280  174.7661   -8.9381 C.3      12        0    0.0000
     75 H          -0.6215  173.9576  -10.4317 H        12        0    0.0000
     76 H           0.9719  173.2099  -10.4295 H        12        0    0.0000
     77 H           1.7983  174.9812   -8.8298 H        12        0    0.0000
     78 H           0.2018  175.7225   -8.8286 H        12        0    0.0000
     79 C           0.2849  173.8097   -7.7777 C.3      13        0    0.0000
     80 C           0.5548  174.4113   -6.3941 C.3      13        0    0.0000
     81 H          -0.7839  173.5891   -7.8900 H        13        0    0.0000
     82 H           0.8163  172.8558   -7.8833 H        13        0    0.0000
     83 H           1.6243  174.6272   -6.2800 H        13        0    0.0000
     84 H           0.0276  175.3678   -6.2905 H        13        0    0.0000
     85 C           0.1050  173.4581   -5.2338 C.3      14        0    0.0000
     86 C           0.3480  174.0719   -3.8506 C.3      14        0    0.0000
     87 H          -0.9595  173.2250   -5.3602 H        14        0    0.0000
     88 H           0.6482  172.5093   -5.3249 H        14        0    0.0000
     89 H           1.4139  174.2969   -3.7209 H        14        0    0.0000
     90 H          -0.1882  175.0250   -3.7625 H        14        0    0.0000
     91 C          -0.1131  173.1237   -2.6905 C.3      15        0    0.0000
     92 C           0.1647  173.7213   -1.3067 C.3      15        0    0.0000
     93 H          -1.1852  172.9211   -2.8044 H        15        0    0.0000
     94 H           0.4023  172.1609   -2.7948 H        15        0    0.0000
     95 H           1.2006  174.0786   -1.2523 H        15        0    0.0000
     96 H          -0.4786  174.5937   -1.1377 H        15        0    0.0000
     97 C          -0.0740  172.6863   -0.1538 C.3      16        0    0.0000
     98 C           0.5727  173.1258    1.1644 C.3      16        0    0.0000
     99 H          -1.1542  172.5526   -0.0167 H        16        0    0.0000
    100 H           0.3271  171.7133   -0.4635 H        16        0    0.0000
    101 H           1.6173  173.4140    0.9933 H        16        0    0.0000
    102 H           0.0612  174.0135    1.5567 H        16        0    0.0000
    103 C           0.5315  171.9972    2.2516 C.3      17        0    0.0000
    104 C           1.8624  171.8624    2.9996 C.3      17        0    0.0000
    105 H          -0.2772  172.2175    2.9595 H        17        0    0.0000
    106 H           0.2751  171.0475    1.7660 H        17        0    0.0000
    107 H           2.6877  172.2063    2.3639 H        17        0    0.0000
    108 H           1.8609  172.5049    3.8889 H        17        0    0.0000
    109 C           2.1477  170.3862    3.4433 C.3      18        0    0.0000
    110 C           1.7351  170.1263    4.8963 C.3      18        0    0.0000
    111 H           1.6101  169.7051    2.7721 H        18        0    0.0000
    112 H           3.2170  170.1782    3.3129 H        18        0    0.0000
    113 H           2.6059  170.2195    5.5570 H        18        0    0.0000
    114 H           1.0100  170.8823    5.2224 H        18        0    0.0000
    115 C           1.1041  168.7044    5.0895 C.3      19        0    0.0000
    116 C          -0.1508  168.7404    5.9688 C.3      19        0    0.0000
    117 H           0.8609  168.2886    4.1038 H        19        0    0.0000
    118 H           1.8562  168.0412    5.5344 H        19        0    0.0000
    119 H           0.1178  168.5508    7.0154 H        19        0    0.0000
    120 H          -0.6047  169.7386    5.9358 H        19        0    0.0000
    121 C          -1.2197  167.6842    5.5221 C.3      20        0    0.0000
    122 C          -1.0222  166.3302    6.2126 C.3      20        0    0.0000
    123 H          -2.2195  168.0774    5.7441 H        20        0    0.0000
    124 H          -1.1634  167.5629    4.4332 H        20        0    0.0000
    125 H          -0.4258  166.4565    7.1246 H        20        0    0.0000
    126 H          -1.9916  165.9218    6.5240 H        20        0    0.0000
    127 C          -0.3098  165.2878    5.2834 C.3      21        0    0.0000
    128 C          -0.5157  163.8466    5.7624 C.3      21        0    0.0000
    129 H          -0.6943  165.4034    4.2624 H        21        0    0.0000
    130 H           0.7612  165.5221    5.2450 H        21        0    0.0000
    131 H          -0.1217  163.7283    6.7795 H        21        0    0.0000
    132 H          -1.5871  163.6156    5.8108 H        21        0    0.0000
    133 C           0.1843  162.8032    4.8249 C.3      22        0    0.0000
    134 C           0.2178  161.3999    5.4404 C.3      22        0    0.0000
    135 H          -0.3450  162.7800    3.8643 H        22        0    0.0000
    136 H           1.2048  163.1459    4.6141 H        22        0    0.0000
    137 H           0.4956  161.4605    6.5000 H        22        0    0.0000
    138 H          -0.7813  160.9483    5.4020 H        22        0    0.0000
    139 C           1.2288  160.4532    4.7063 C.3      23        0    0.0000
    140 C           1.3035  159.0672    5.3563 C.3      23        0    0.0000
    141 H           0.9270  160.3602    3.6556 H        23        0    0.0000
    142 H           2.2198  160.9238    4.7089 H        23        0    0.0000
    143 H           0.3711  158.5173    5.1779 H        23        0    0.0000
    144 H           2.1085  158.4796    4.8977 H        23        0    0.0000
    145 C           1.5544  159.1484    6.9015 C.3      24        0    0.0000
    146 C           1.3577  157.7952    7.5938 C.3      24        0    0.0000
    147 H           2.5735  159.5154    7.0755 H        24        0    0.0000
    148 H           0.8736  159.8934    7.3316 H        24        0    0.0000
    149 H           1.7616  156.9901    6.9676 H        24        0    0.0000
    150 H           1.9166  157.7708    8.5376 H        24        0    0.0000
    151 C          -0.1515  157.4944    7.8925 C.3      25        0    0.0000
    152 C          -0.3388  156.1996    8.6909 C.3      25        0    0.0000
    153 H          -0.5785  158.3414    8.4437 H        25        0    0.0000
    154 H          -0.6945  157.4317    6.9413 H        25        0    0.0000
    155 H          -0.1221  156.3771    9.7516 H        25        0    0.0000
    156 H          -1.3836  155.8702    8.6337 H        25        0    0.0000
    157 C           0.5846  155.0435    8.1731 C.3      26        0    0.0000
    158 C          -0.2163  153.8971    7.5459 C.3      26        0    0.0000
    159 H           1.2892  155.4552    7.4399 H        26        0    0.0000
    160 H           1.1852  154.6684    9.0111 H        26        0    0.0000
    161 H          -0.4593  153.1468    8.3085 H        26        0    0.0000
    162 H          -1.1713  154.2733    7.1586 H        26        0    0.0000
    163 C           0.5620  153.1976    6.3787 C.3      27        0    0.0000
    164 C           0.2147  151.7096    6.2588 C.3      27        0    0.0000
    165 H           0.3303  153.7148    5.4394 H        27        0    0.0000
    166 H           1.6389  153.3201    6.5484 H        27        0    0.0000
    167 H           0.0757  151.2743    7.2561 H        27        0    0.0000
    168 H          -0.7364  151.5871    5.7261 H        27        0    0.0000
    169 C           1.3245  150.8995    5.5041 C.3      28        0    0.0000
    170 C           0.9687  149.4150    5.3678 C.3      28        0    0.0000
    171 H           1.4733  151.3434    4.5119 H        28        0    0.0000
    172 H           2.2728  151.0110    6.0444 H        28        0    0.0000
    173 H           1.6878  148.9149    4.7072 H        28        0    0.0000
    174 H           1.0405  148.9198    6.3440 H        28        0    0.0000
    175 C          -0.4756  149.2002    4.7973 C.3      29        0    0.0000
    176 C          -0.8376  147.7159    4.6766 C.3      29        0    0.0000
    177 H          -1.1936  149.7106    5.4511 H        29        0    0.0000
    178 H          -0.5437  149.6851    3.8155 H        29        0    0.0000
    179 H          -1.0164  147.2901    5.6717 H        29        0    0.0000
    180 H          -1.7715  147.6011    4.1124 H        29        0    0.0000
    181 C           0.2869  146.8859    3.9666 C.3      30        0    0.0000
    182 C          -0.0684  145.3988    3.8596 C.3      30        0    0.0000
    183 H           0.4579  147.3047    2.9671 H        30        0    0.0000
    184 H           1.2234  147.0096    4.5244 H        30        0    0.0000
    185 H           0.3088  144.8579    4.7363 H        30        0    0.0000
    186 H          -1.1581  145.2718    3.8558 H        30        0    0.0000
    187 C           0.5217  144.7386    2.5660 C.3      31        0    0.0000
    188 C           0.1516  143.2558    2.4501 C.3      31        0    0.0000
    189 H           0.1546  145.2874    1.6899 H        31        0    0.0000
    190 H           1.6126  144.8544    2.5760 H        31        0    0.0000
    191 H           0.5188  142.7069    3.3262 H        31        0    0.0000
    192 H          -0.9392  143.1400    2.4402 H        31        0    0.0000
    193 C           0.7416  142.5955    1.1565 C.3      32        0    0.0000
    194 C           0.3498  141.1194    1.0273 C.3      32        0    0.0000
    195 H           0.3898  143.1561    0.2815 H        32        0    0.0000
    196 H           1.8340  142.6945    1.1757 H        32        0    0.0000
    197 H           0.9741  140.5053    1.6881 H        32        0    0.0000
    198 H          -0.6883  140.9760    1.3517 H        32        0    0.0000
    199 C           0.4978  140.5919   -0.4415 C.3      33        0    0.0000
    200 C           0.0852  139.1218   -0.5749 C.3      33        0    0.0000
    201 H          -0.1139  141.2160   -1.1047 H        33        0    0.0000
    202 H           1.5396  140.7206   -0.7602 H        33        0    0.0000
    203 H           0.7727  138.4849   -0.0048 H        33        0    0.0000
    204 H          -0.9131  138.9709   -0.1458 H        33        0    0.0000
    205 C           0.0716  138.6417   -2.0672 C.3      34        0    0.0000
    206 C          -0.9150  137.4918   -2.2985 C.3      34        0    0.0000
    207 H          -0.1852  139.4928   -2.7101 H        34        0    0.0000
    208 H           1.0853  138.3297   -2.3475 H        34        0    0.0000
    209 H          -0.5517  136.5802   -1.8081 H        34        0    0.0000
    210 H          -1.8839  137.7301   -1.8425 H        34        0    0.0000
    211 C          -1.1332  137.1936   -3.8219 C.3      35        0    0.0000
    212 C          -0.8130  135.7383   -4.1805 C.3      35        0    0.0000
    213 H          -2.1735  137.4249   -4.0821 H        35        0    0.0000
    214 H          -0.5030  137.8730   -4.4091 H        35        0    0.0000
    215 H          -0.1661  135.2953   -3.4131 H        35        0    0.0000
    216 H          -1.7346  135.1435   -4.1973 H        35        0    0.0000
    217 C          -0.1044  135.6116   -5.5731 C.3      36        0    0.0000
    218 C          -1.1039  135.4075   -6.7169 C.3      36        0    0.0000
    219 H           0.4908  136.5159   -5.7506 H        36        0    0.0000
    220 H           0.6011  134.7724   -5.5359 H        36        0    0.0000
    221 H          -0.7304  134.6447   -7.4113 H        36        0    0.0000
    222 H          -2.0568  135.0342   -6.3217 H        36        0    0.0000
    223 C          -1.3714  136.7299   -7.5153 C.3      37        0    0.0000
    224 C          -1.2123  136.5377   -9.0275 C.3      37        0    0.0000
    225 H          -2.3843  137.0830   -7.2854 H        37        0    0.0000
    226 H          -0.6798  137.5037   -7.1596 H        37        0    0.0000
    227 H          -0.6068  135.6460   -9.2317 H        37        0    0.0000
    228 H          -2.1922  136.3658   -9.4900 H        37        0    0.0000
    229 C          -0.5386  137.7745   -9.7159 C.3      38        0    0.0000
    230 C          -0.4748  137.6275  -11.2402 C.3      38        0    0.0000
    231 H          -1.1007  138.6778   -9.4483 H        38        0    0.0000
    232 H           0.4719  137.8997   -9.3075 H        38        0    0.0000
    233 H           0.1633  136.7768  -11.5097 H        38        0    0.0000
    234 H          -1.4735  137.4111  -11.6393 H        38        0    0.0000
    235 C           0.0801  138.9166  -11.9386 C.3      39        0    0.0000
    236 C           0.0914  138.7905  -13.4661 C.3      39        0    0.0000
    237 H          -0.5335  139.7744  -11.6365 H        39        0    0.0000
    238 H           1.0950  139.1097  -11.5696 H        39        0    0.0000
    239 H           0.3638  139.7510  -13.9208 H        39        0    0.0000
    240 H           0.8543  138.0666  -13.7781 H        39        0    0.0000
    241 C          -1.2974  138.3379  -14.0351 C.3      40        0    0.0000
    242 C          -1.2888  138.2209  -15.5633 C.3      40        0    0.0000
    243 H          -1.5666  137.3740  -13.5856 H        40        0    0.0000
    244 H          -2.0615  139.0581  -13.7173 H        40        0    0.0000
    245 H          -1.5654  137.2028  -15.8642 H        40        0    0.0000
    246 H          -2.0405  138.8925  -15.9962 H        40        0    0.0000
    247 C           0.1114  138.5666  -16.1777 C.3      41        0    0.0000
    248 C           0.0894  138.5657  -17.7102 C.3      41        0    0.0000
    249 H           0.4274  139.5494  -15.8065 H        41        0    0.0000
    250 H           0.8473  137.8400  -15.8116 H        41        0    0.0000
    251 H           1.0594  138.8979  -18.1004 H        41        0    0.0000
    252 H          -0.0680  137.5462  -18.0835 H        41        0    0.0000
    253 C          -1.0330  139.4947  -18.2888 C.3      42        0    0.0000
    254 C          -1.0662  139.4803  -19.8210 C.3      42        0    0.0000
    255 H          -2.0016  139.1704  -17.8884 H        42        0    0.0000
    256 H          -0.8682  140.5167  -17.9257 H        42        0    0.0000
    257 H          -2.0399  139.1172  -20.1727 H        42        0    0.0000
    258 H          -0.9512  140.4998  -20.2093 H        42        0    0.0000
    259 C           0.0604  138.5770  -20.4313 C.3      43        0    0.0000
    260 C           0.0195  138.5529  -21.9632 C.3      43        0    0.0000
    261 H           1.0345  138.9456  -20.0867 H        43        0    0.0000
    262 H          -0.0493  137.5595  -20.0360 H        43        0    0.0000
    263 H           0.3147  137.5628  -22.3318 H        43        0    0.0000
    264 H          -1.0049  138.7275  -22.3149 H        43        0    0.0000
    265 C           0.9629  139.6310  -22.5997 C.3      44        0    0.0000
    266 C           0.9235  139.6057  -24.1316 C.3      44        0    0.0000
    267 H           0.6668  140.6213  -22.2321 H        44        0    0.0000
    268 H           1.9871  139.4573  -22.2469 H        44        0    0.0000
    269 H           0.6103  140.5843  -24.5161 H        44        0    0.0000
    270 H           1.9278  139.4171  -24.5307 H        44        0    0.0000
    271 C          -0.0531  138.5102  -24.6827 C.3      45        0    0.0000
    272 C          -0.0803  138.4738  -26.2147 C.3      45        0    0.0000
    273 H           0.2529  137.5331  -24.2886 H        45        0    0.0000
    274 H          -1.0599  138.7057  -24.2932 H        45        0    0.0000
    275 H           0.8504  138.0365  -26.5971 H        45        0    0.0000
    276 H          -0.8971  137.8287  -26.5613 H        45        0    0.0000
    277 C          -0.2626  139.8999  -26.8397 C.3      46        0    0.0000
    278 C          -0.2212  139.8723  -28.3715 C.3      46        0    0.0000
    279 H          -1.2177  140.3168  -26.4967 H        46        0    0.0000
    280 H           0.5254  140.5585  -26.4539 H        46        0    0.0000
    281 H          -1.1177  140.3542  -28.7808 H        46        0    0.0000
    282 H           0.6394  140.4476  -28.7350 H        46        0    0.0000
    283 C          -0.1289  138.4132  -28.9372 C.3      47        0    0.0000
    284 C          -0.0231  138.3886  -30.4660 C.3      47        0    0.0000
    285 H           0.7415  137.9157  -28.4918 H        47        0    0.0000
    286 H          -1.0134  137.8514  -28.6123 H        47        0    0.0000
    287 H           0.9866  138.6829  -30.7780 H        47        0    0.0000
    288 H          -0.1830  137.3688  -30.8377 H        47        0    0.0000
    289 C          -1.0616  139.3439  -31.1489 C.3      48        0    0.0000
    290 C          -0.9405  139.3365  -32.6768 C.3      48        0    0.0000
    291 H          -2.0722  139.0391  -30.8502 H        48        0    0.0000
    292 H          -0.9127  140.3606  -30.7647 H        48        0    0.0000
    293 H          -1.7891  139.8688  -33.1240 H        48        0    0.0000
    294 H          -0.0344  139.8728  -32.9849 H        48        0    0.0000
    295 C          -0.8908  137.8829  -33.2617 C.3      49        0    0.0000
    296 C          -0.4195  137.8594  -34.7199 C.3      49        0    0.0000
    297 H          -0.2221  137.2744  -32.6404 H        49        0    0.0000
    298 H          -1.8892  137.4353  -33.1819 H        49        0    0.0000
    299 H           0.6364  137.5658  -34.7693 H        49        0    0.0000
    300 H          -0.9826  137.1065  -35.2852 H        49        0    0.0000
    301 C          -0.5903  139.2506  -35.4221 C.3      50        0    0.0000
    302 C          -0.2226  139.1998  -36.9091 C.3      50        0    0.0000
    303 H          -1.6294  139.5817  -35.3026 H        50        0    0.0000
    304 H           0.0366  139.9873  -34.9045 H        50        0    0.0000
    305 H          -0.4453  140.1629  -37.3848 H        50        0    0.0000
    306 H           0.8555  139.0332  -37.0245 H        50        0    0.0000
    307 C          -0.9933  138.0686  -37.6733 C.3      51        0    0.0000
    308 C          -0.5299  137.9305  -39.1277 C.3      51        0    0.0000
    309 H          -0.8489  137.1204  -37.1408 H        51        0    0.0000
    310 H          -2.0677  138.2881  -37.6401 H        51        0    0.0000
    311 H          -0.0065  136.9765  -39.2667 H        51        0    0.0000
    312 H          -1.3975  137.9146  -39.7990 H        51        0    0.0000
    313 C           0.4229  139.0975  -39.5610 C.3      52        0    0.0000
    314 C           0.7726  139.0387  -41.0521 C.3      52        0    0.0000
    315 H          -0.0597  140.0541  -39.3252 H        52        0    0.0000
    316 H           1.3381  139.0493  -38.9579 H        52        0    0.0000
    317 H          -0.0432  139.4679  -41.6469 H        52        0    0.0000
    318 H           1.6633  139.6465  -41.2539 H        52        0    0.0000
    319 C           1.0388  137.5738  -41.5425 C.3      53        0    0.0000
    320 C           0.8002  137.4128  -43.0479 C.3      53        0    0.0000
    321 H           2.0717  137.2999  -41.2940 H        53        0    0.0000
    322 H           0.3883  136.8899  -40.9833 H        53        0    0.0000
    323 H           1.4786  138.0679  -43.6084 H        53        0    0.0000
    324 H           1.0277  136.3851  -43.3571 H        53        0    0.0000
    325 C          -0.6762  137.7477  -43.4546 C.3      54        0    0.0000
    326 C          -1.3033  136.6498  -44.3210 C.3      54        0    0.0000
    327 H          -1.2697  137.8927  -42.5434 H        54        0    0.0000
    328 H          -0.6866  138.7036  -43.9929 H        54        0    0.0000
    329 H          -0.7098  136.5047  -45.2321 H        54        0    0.0000
    330 H          -1.2929  135.6940  -43.7827 H        54        0    0.0000
    331 H          -2.3299  136.8827  -44.6037 H        54        0    0.0000
    332 H          -0.7202  174.4287  -40.4349 H         0        0    0.0000
@<TRIPOS>BOND
     1     1     2      1
     2     1     3      1
     3     1     4      1
     4     1   332      H
     5     2     5      1
     6     2     6      1
     7     2     7      1
     8     7     8      1
     9     7     9      1
    10     7    10      1
    11     8    11      1
    12     8    12      1
    13     8    13      1
    14    13    14      1
    15    13    15      1
    16    13    16      1
    17    14    17      1
    18    14    18      1
    19    14    19      1
    20    19    20      1
    21    19    21      1
    22    19    22      1
    23    20    23      1
    24    20    24      1
    25    20    25      1
    26    25    26      1
    27    25    27      1
    28    25    28      1
    29    26    29      1
    30    26    30      1
    31    26    31      1
    32    31    32      1
    33    31    33      1
    34    31    34      1
    35    32    35      1
    36    32    36      1
    37    32    37      1
    38    37    38      1
    39    37    39      1
    40    37    40      1
    41    38    41      1
    42    38    42      1
    43    38    43      1
    44    43    44      1
    45    43    45      1
    46    43    46      1
    47    44    47      1
    48    44    48      1
    49    44    49      1
    50    49    50      1
    51    49    51      1
    52    49    52      1
    53    50    53      1
    54    50    54      1
    55    50    55      1
    56    55    56      1
    57    55    57      1
    58    55    58      1
    59    56    59      1
    60    56    60      1
    61    56    61      1
    62    61    62      1
    63    61    63      1
    64    61    64      1
    65    62    65      1
    66    62    66      1
    67    62    67      1
    68    67    68      1
    69    67    69      1
    70    67    70      1
    71    68    71      1
    72    68    72      1
    73    68    73      1
    74    73    74      1
    75    73    75      1
    76    73    76      1
    77    74    77      1
    78    74    78      1
    79    74    79      1
    80    79    80      1
    81    79    81      1
    82    79    82      1
    83    80    83      1
    84    80    84      1
    85    80    85      1
    86    85    86      1
    87    85    87      1
    88    85    88      1
    89    86    89      1
    90    86    90      1
    91    86    91      1
    92    91    92      1
    93    91    93      1
    94    91    94      1
    95    92    95      1
    96    92    96      1
    97    92    97      1
    98    97    98      1
    99    97    99      1
   100    97   100      1
   101    98   101      1
   102    98   102      1
   103    98   103      1
   104   103   104      1
   105   103   105      1
   106   103   106      1
   107   104   107      1
   108   104   108      1
   109   104   109      1
   110   109   110      1
   111   109   111      1
   112   109   112      1
   113   110   113      1
   114   110   114      1
   115   110   115      1
   116   115   116      1
   117   115   117      1
   118   115   118      1
   119   116   119      1
   120   116   120      1
   121   116   121      1
   122   121   122      1
   123   121   123      1
   124   121   124      1
   125   122   125      1
   126   122   126      1
   127   122   127      1
   128   127   128      1
   129   127   129      1
   130   127   130      1
   131   128   131      1
   132   128   132      1
   133   128   133      1
   134   133   134      1
   135   133   135      1
   136   133   136      1
   137   134   137      1
   138   134   138      1
   139   134   139      1
   140   139   140      1
   141   139   141      1
   142   139   142      1
   143   140   143      1
   144   140   144      1
   145   140   145      1
   146   145   146      1
   147   145   147      1
   148   145   148      1
   149   146   149      1
   150   146   150      1
   151   146   151      1
   152   151   152      1
   153   151   153      1
   154   151   154      1
   155   152   155      1
   156   152   156      1
   157   152   157      1
   158   157   158      1
   159   157   159      1
   160   157   160      1
   161   158   161      1
   162   158   162      1
   163   158   163      1
   164   163   164      1
   165   163   165      1
   166   163   166      1
   167   164   167      1
   168   164   168      1
   169   164   169      1
   170   169   170      1
   171   169   171      1
   172   169   172      1
   173   170   173      1
   174   170   174      1
   175   170   175      1
   176   175   176      1
   177   175   177      1
   178   175   178      1
   179   176   179      1
   180   176   180      1
   181   176   181      1
   182   181   182      1
   183   181   183      1
   184   181   184      1
   185   182   185      1
   186   182   186      1
   187   182   187      1
   188   187   188      1
   189   187   189      1
   190   187   190      1
   191   188   191      1
   192   188   192      1
   193   188   193      1
   194   193   194      1
   195   193   195      1
   196   193   196      1
   197   194   197      1
   198   194   198      1
   199   194   199      1
   200   199   200      1
   201   199   201      1
   202   199   202      1
   203   200   203      1
   204   200   204      1
   205   200   205      1
   206   205   206      1
   207   205   207      1
   208   205   208      1
   209   206   209      1
   210   206   210      1
   211   206   211      1
   212   211   212      1
   213   211   213      1
   214   211   214      1
   215   212   215      1
   216   212   216      1
   217   212   217      1
   218   217   218      1
   219   217   219      1
   220   217   220      1
   221   218   221      1
   222   218   222      1
   223   218   223      1
   224   223   224      1
   225   223   225      1
   226   223   226      1
   227   224   227      1
   228   224   228      1
   229   224   229      1
   230   229   230      1
   231   229   231      1
   232   229   232      1
   233   230   233      1
   234   230   234      1
   235   230   235      1
   236   235   236      1
   237   235   237      1
   238   235   238      1
   239   236   239      1
   240   236   240      1
   241   236   241      1
   242   241   242      1
   243   241   243      1
   244   241   244      1
   245   242   245      1
   246   242   246      1
   247   242   247      1
   248   247   248      1
   249   247   249      1
   250   247   250      1
   251   248   251      1
   252   248   252      1
   253   248   253      1
   254   253   254      1
   255   253   255      1
   256   253   256      1
   257   254   257      1
   258   254   258      1
   259   254   259      1
   260   259   260      1
   261   259   261      1
   262   259   262      1
   263   260   263      1
   264   260   264      1
   265   260   265      1
   266   265   266      1
   267   265   267      1
   268   265   268      1
   269   266   269      1
   270   266   270      1
   271   266   271      1
   272   271   272      1
   273   271   273      1
   274   271   274      1
   275   272   275      1
   276   272   276      1
   277   272   277      1
   278   277   278      1
   279   277   279      1
   280   277   280      1
   281   278   281      1
   282   278   282      1
   283   278   283      1
   284   283   284      1
   285   283   285      1
   286   283   286      1
   287   284   287      1
   288   284   288      1
   289   284   289      1
   290   289   290      1
   291   289   291      1
   292   289   292      1
   293   290   293      1
   294   290   294      1
   295   290   295      1
   296   295   296      1
   297   295   297      1
   298   295   298      1
   299   296   299      1
   300   296   300      1
   301   296   301      1
   302   301   302      1
   303   301   303      1
   304   301   304      1
   305   302   305      1
   306   302   306      1
   307   302   307      1
   308   307   308      1
   309   307   309      1
   310   307   310      1
   311   308   311      1
   312   308   312      1
   313   308   313      1
   314   313   314      1
   315   313   315      1
   316   313   316      1
   317   314   317      1
   318   314   318      1
   319   314   319      1
   320   319   320      1
   321   319   321      1
   322   319   322      1
   323   320   323      1
   324   320   324      1
   325   320   325      1
   326   325   326      1
   327   325   327      1
   328   325   328      1
   329   326   329      1
   330   326   330      1
   331   326   331      H
