###
### Created by PolyChef-cpp17 on Thu Feb 27 19:40:29 2025
###

@<TRIPOS>MOLECULE
NO_INFO
362 361 1 0 0
SMALL
USER_CHARGES


@<TRIPOS>ATOM
      1 C          99.2798   35.8687  120.6551 C.3       0        0    0.0000
      2 C          98.4513   34.7175  120.0742 C.3       0        0    0.0000
      3 H          98.8875   36.8302  120.3014 H         0        0    0.0000
      4 H         100.3162   35.8021  120.3014 H         0        0    0.0000
      5 H          98.4077   33.8870  120.7897 H         0        0    0.0000
      6 H          97.4174   35.0446  119.9079 H         0        0    0.0000
      7 C          99.0376   34.1877  118.7203 C.3       1        0    0.0000
      8 C          99.6351   35.3116  117.8667 C.3       1        0    0.0000
      9 H          99.8035   33.4329  118.9379 H         1        0    0.0000
     10 H          98.2407   33.6770  118.1656 H         1        0    0.0000
     11 H          98.9445   36.1633  117.8293 H         1        0    0.0000
     12 H         100.5628   35.6782  118.3232 H         1        0    0.0000
     13 C          99.9425   34.8458  116.4018 C.3       2        0    0.0000
     14 C          99.8889   36.0048  115.4003 C.3       2        0    0.0000
     15 H         100.9336   34.3760  116.3808 H         2        0    0.0000
     16 H          99.2202   34.0702  116.1184 H         2        0    0.0000
     17 H          98.9699   36.5859  115.5463 H         2        0    0.0000
     18 H         100.7267   36.6913  115.5744 H         2        0    0.0000
     19 C          99.9424   35.5088  113.9142 C.3       3        0    0.0000
     20 C          99.8145   36.6615  112.9122 C.3       3        0    0.0000
     21 H         100.8866   34.9739  113.7537 H         3        0    0.0000
     22 H          99.1370   34.7810  113.7551 H         3        0    0.0000
     23 H          98.8755   37.2034  113.0800 H         3        0    0.0000
     24 H         100.6264   37.3836  113.0639 H         3        0    0.0000
     25 C          99.8520   36.1638  111.4261 C.3       4        0    0.0000
     26 C          99.8702   37.3243  110.4252 C.3       4        0    0.0000
     27 H         100.7387   35.5330  111.2868 H         4        0    0.0000
     28 H          98.9790   35.5246  111.2452 H         4        0    0.0000
     29 H          98.9722   37.9422  110.5494 H         4        0    0.0000
     30 H         100.7306   37.9762  110.6206 H         4        0    0.0000
     31 C          99.9399   36.8270  108.9402 C.3       5        0    0.0000
     32 C          98.8856   37.4980  108.0528 C.3       5        0    0.0000
     33 H         100.9445   37.0266  108.5472 H         5        0    0.0000
     34 H          99.8063   35.7382  108.9252 H         5        0    0.0000
     35 H          97.9271   37.5531  108.5836 H         5        0    0.0000
     36 H          99.1827   38.5305  107.8309 H         5        0    0.0000
     37 C          98.6718   36.7323  106.7017 C.3       6        0    0.0000
     38 C          99.0358   37.5895  105.4844 C.3       6        0    0.0000
     39 H          99.2787   35.8185  106.7133 H         6        0    0.0000
     40 H          97.6240   36.4138  106.6378 H         6        0    0.0000
     41 H          98.1608   38.1619  105.1523 H         6        0    0.0000
     42 H          99.8063   38.3215  105.7566 H         6        0    0.0000
     43 C          99.5598   36.7264  104.2853 C.3       7        0    0.0000
     44 C          99.0077   37.2070  102.9387 C.3       7        0    0.0000
     45 H         100.6563   36.7620  104.2766 H         7        0    0.0000
     46 H          99.2800   35.6792  104.4545 H         7        0    0.0000
     47 H          97.9225   37.3521  103.0074 H         7        0    0.0000
     48 H          99.4403   38.1817  102.6811 H         7        0    0.0000
     49 C          99.3101   36.1973  101.7783 C.3       8        0    0.0000
     50 C          99.1213   36.8292  100.3947 C.3       8        0    0.0000
     51 H         100.3383   35.8309  101.8873 H         8        0    0.0000
     52 H          98.6520   35.3263  101.8870 H         8        0    0.0000
     53 H          98.0751   37.1296  100.2580 H         8        0    0.0000
     54 H          99.7245   37.7418  100.3125 H         8        0    0.0000
     55 C          99.5221   35.8525   99.2359 C.3       9        0    0.0000
     56 C          99.2850   36.4656   97.8514 C.3       9        0    0.0000
     57 H         100.5789   35.5816   99.3513 H         9        0    0.0000
     58 H          98.9459   34.9248   99.3401 H         9        0    0.0000
     59 H          98.2306   36.7475   97.7404 H         9        0    0.0000
     60 H          99.8705   37.3870   97.7427 H         9        0    0.0000
     61 C          99.6699   35.4827   96.6925 C.3      10        0    0.0000
     62 C          99.4349   36.0966   95.3079 C.3      10        0    0.0000
     63 H         100.7238   35.1995   96.8044 H        10        0    0.0000
     64 H          99.0832   34.5619   96.8002 H        10        0    0.0000
     65 H          98.3811   36.3809   95.1965 H        10        0    0.0000
     66 H         100.0225   37.0167   95.1998 H        10        0    0.0000
     67 C          99.8182   35.1130   94.1490 C.3      11        0    0.0000
     68 C          99.5769   35.7245   92.7645 C.3      11        0    0.0000
     69 H         100.8732   34.8326   94.2577 H        11        0    0.0000
     70 H          99.2340   34.1910   94.2600 H        11        0    0.0000
     71 H          98.5221   36.0064   92.6564 H        11        0    0.0000
     72 H         100.1621   36.6457   92.6530 H        11        0    0.0000
     73 C          99.9582   34.7402   91.6056 C.3      12        0    0.0000
     74 C          99.7212   35.3534   90.2211 C.3      12        0    0.0000
     75 H         101.0120   34.4557   91.7156 H        12        0    0.0000
     76 H          99.3705   33.8203   91.7152 H        12        0    0.0000
     77 H          98.6667   35.6350   90.1099 H        12        0    0.0000
     78 H         100.3065   36.2749   90.1126 H        12        0    0.0000
     79 C         100.1065   34.3706   89.0622 C.3      13        0    0.0000
     80 C          99.8668   34.9827   87.6777 C.3      13        0    0.0000
     81 H         101.1616   34.0906   89.1721 H        13        0    0.0000
     82 H          99.5228   33.4482   89.1719 H        13        0    0.0000
     83 H          98.8143   35.2738   87.5722 H        13        0    0.0000
     84 H         100.4599   35.8985   87.5635 H        13        0    0.0000
     85 C         100.2361   33.9937   86.5188 C.3      14        0    0.0000
     86 C          99.9959   34.6057   85.1343 C.3      14        0    0.0000
     87 H         101.2887   33.7029   86.6241 H        14        0    0.0000
     88 H          99.6432   33.0778   86.6332 H        14        0    0.0000
     89 H          98.9913   35.0437   85.0858 H        14        0    0.0000
     90 H         100.7051   35.4235   84.9563 H        14        0    0.0000
     91 C         100.1429   33.5502   83.9846 C.3      15        0    0.0000
     92 C          99.9704   34.1759   82.5961 C.3      15        0    0.0000
     93 H         101.1291   33.0762   84.0637 H        15        0    0.0000
     94 H          99.3995   32.7576   84.1350 H        15        0    0.0000
     95 H          99.3585   33.5221   81.9623 H        15        0    0.0000
     96 H          99.4331   35.1289   82.6771 H        15        0    0.0000
     97 C         101.3437   34.4290   81.8838 C.3      16        0    0.0000
     98 C         101.1685   34.9455   80.4514 C.3      16        0    0.0000
     99 H         101.9214   35.1498   82.4755 H        16        0    0.0000
    100 H         101.9172   33.4938   81.8789 H        16        0    0.0000
    101 H         100.8302   34.1325   79.7971 H        16        0    0.0000
    102 H         100.3899   35.7178   80.4226 H        16        0    0.0000
    103 C         102.4954   35.5437   79.8691 C.3      17        0    0.0000
    104 C         102.2533   36.8357   79.0810 C.3      17        0    0.0000
    105 H         103.1910   35.7323   80.6962 H        17        0    0.0000
    106 H         102.9687   34.7928   79.2244 H        17        0    0.0000
    107 H         101.9415   36.5984   78.0563 H        17        0    0.0000
    108 H         101.4335   37.4056   79.5356 H        17        0    0.0000
    109 C         103.5294   37.7444   79.0233 C.3      18        0    0.0000
    110 C         103.1904   39.2318   79.1709 C.3      18        0    0.0000
    111 H         104.2198   37.4352   79.8178 H        18        0    0.0000
    112 H         104.0457   37.5689   78.0713 H        18        0    0.0000
    113 H         102.6472   39.5835   78.2850 H        18        0    0.0000
    114 H         102.5241   39.3824   80.0293 H        18        0    0.0000
    115 C         104.4702   40.1165   79.3632 C.3      19        0    0.0000
    116 C         104.3422   41.4802   78.6755 C.3      19        0    0.0000
    117 H         104.6482   40.2520   80.4372 H        19        0    0.0000
    118 H         105.3375   39.5748   78.9659 H        19        0    0.0000
    119 H         103.9263   41.3559   77.6680 H        19        0    0.0000
    120 H         103.6410   42.1166   79.2294 H        19        0    0.0000
    121 C         105.7190   42.2217   78.5658 C.3      20        0    0.0000
    122 C         105.9093   42.8946   77.2019 C.3      20        0    0.0000
    123 H         105.7828   42.9693   79.3662 H        20        0    0.0000
    124 H         106.5250   41.4993   78.7445 H        20        0    0.0000
    125 H         105.3367   42.3587   76.4349 H        20        0    0.0000
    126 H         105.5170   43.9188   77.2297 H        20        0    0.0000
    127 C         107.4149   42.9419   76.7677 C.3      21        0    0.0000
    128 C         107.6107   42.5285   75.3049 C.3      21        0    0.0000
    129 H         107.7967   43.9582   76.9257 H        21        0    0.0000
    130 H         107.9936   42.2821   77.4258 H        21        0    0.0000
    131 H         106.7536   41.9347   74.9638 H        21        0    0.0000
    132 H         107.6521   43.4185   74.6648 H        21        0    0.0000
    133 C         108.9203   41.6930   75.0939 C.3      22        0    0.0000
    134 C         109.0767   41.2139   73.6465 C.3      22        0    0.0000
    135 H         109.7821   42.3077   75.3819 H        22        0    0.0000
    136 H         108.9048   40.8333   75.7752 H        22        0    0.0000
    137 H         108.2076   40.6118   73.3536 H        22        0    0.0000
    138 H         109.1074   42.0743   72.9666 H        22        0    0.0000
    139 C         110.3754   40.3604   73.4403 C.3      23        0    0.0000
    140 C         110.5323   39.8822   71.9926 C.3      23        0    0.0000
    141 H         111.2443   40.9623   73.7339 H        23        0    0.0000
    142 H         110.3443   39.4995   74.1196 H        23        0    0.0000
    143 H         109.6625   39.2818   71.6984 H        23        0    0.0000
    144 H         110.5651   40.7432   71.3135 H        23        0    0.0000
    145 C         111.8297   39.0267   71.7869 C.3      24        0    0.0000
    146 C         112.0224   38.6058   70.3258 C.3      24        0    0.0000
    147 H         112.6949   39.6087   72.1280 H        24        0    0.0000
    148 H         111.7738   38.1394   72.4297 H        24        0    0.0000
    149 H         111.1733   37.9948   69.9953 H        24        0    0.0000
    150 H         112.0438   39.4916   69.6789 H        24        0    0.0000
    151 C         113.3447   37.7915   70.1115 C.3      25        0    0.0000
    152 C         113.6659   37.5856   68.6271 C.3      25        0    0.0000
    153 H         114.1695   38.3204   70.6050 H        25        0    0.0000
    154 H         113.2476   36.8210   70.6136 H        25        0    0.0000
    155 H         112.8813   36.9832   68.1526 H        25        0    0.0000
    156 H         113.6790   38.5517   68.1075 H        25        0    0.0000
    157 C         115.0473   36.8768   68.4110 C.3      26        0    0.0000
    158 C         115.4420   36.8125   66.9314 C.3      26        0    0.0000
    159 H         115.8141   37.4151   68.9818 H        26        0    0.0000
    160 H         114.9949   35.8645   68.8307 H        26        0    0.0000
    161 H         114.6882   36.2516   66.3651 H        26        0    0.0000
    162 H         115.4690   37.8230   66.5051 H        26        0    0.0000
    163 C         116.8403   36.1366   66.7184 C.3      27        0    0.0000
    164 C         117.3923   36.3757   65.3087 C.3      27        0    0.0000
    165 H         117.5399   36.5277   67.4675 H        27        0    0.0000
    166 H         116.7453   35.0602   66.9076 H        27        0    0.0000
    167 H         116.7363   35.9086   64.5637 H        27        0    0.0000
    168 H         117.4057   37.4501   65.0871 H        27        0    0.0000
    169 C         118.8420   35.8055   65.1337 C.3      28        0    0.0000
    170 C         119.7764   36.7990   64.4343 C.3      28        0    0.0000
    171 H         119.2413   35.5453   66.1218 H        28        0    0.0000
    172 H         118.7880   34.8721   64.5599 H        28        0    0.0000
    173 H         119.7024   36.6827   63.3460 H        28        0    0.0000
    174 H         119.4708   37.8276   64.6628 H        28        0    0.0000
    175 C         121.2725   36.6095   64.8621 C.3      29        0    0.0000
    176 C         122.1488   37.7983   64.4524 C.3      29        0    0.0000
    177 H         121.3143   36.4685   65.9493 H        29        0    0.0000
    178 H         121.6555   35.6864   64.4097 H        29        0    0.0000
    179 H         122.1345   37.9180   63.3620 H        29        0    0.0000
    180 H         121.7459   38.7264   64.8765 H        29        0    0.0000
    181 C         123.6348   37.6311   64.9229 C.3      30        0    0.0000
    182 C         124.5921   38.5563   64.1636 C.3      30        0    0.0000
    183 H         123.6899   37.8346   65.9995 H        30        0    0.0000
    184 H         123.9339   36.5848   64.7844 H        30        0    0.0000
    185 H         124.4909   38.3971   63.0828 H        30        0    0.0000
    186 H         124.3315   39.6049   64.3533 H        30        0    0.0000
    187 C         126.0884   38.3260   64.5703 C.3      31        0    0.0000
    188 C         127.0152   39.4134   64.0153 C.3      31        0    0.0000
    189 H         126.1568   38.2962   65.6648 H        31        0    0.0000
    190 H         126.4057   37.3404   64.2079 H        31        0    0.0000
    191 H         126.9714   39.4214   62.9192 H        31        0    0.0000
    192 H         126.6785   40.4020   64.3513 H        31        0    0.0000
    193 C         128.5044   39.2086   64.4601 C.3      32        0    0.0000
    194 C         129.4630   40.1600   63.7357 C.3      32        0    0.0000
    195 H         128.5733   39.3589   65.5446 H        32        0    0.0000
    196 H         128.7909   38.1673   64.2676 H        32        0    0.0000
    197 H         129.3717   40.0313   62.6500 H        32        0    0.0000
    198 H         129.1951   41.2014   63.9530 H        32        0    0.0000
    199 C         130.9571   39.9260   64.1484 C.3      33        0    0.0000
    200 C         131.8391   41.1439   63.8522 C.3      33        0    0.0000
    201 H         130.9949   39.6854   65.2181 H        33        0    0.0000
    202 H         131.3380   39.0468   63.6141 H        33        0    0.0000
    203 H         131.8921   41.3157   62.7700 H        33        0    0.0000
    204 H         131.3959   42.0455   64.2930 H        33        0    0.0000
    205 C         133.2947   40.9726   64.4085 C.3      34        0    0.0000
    206 C         133.7927   42.2301   65.1295 C.3      34        0    0.0000
    207 H         133.3133   40.1148   65.0921 H        34        0    0.0000
    208 H         133.9649   40.7263   63.5756 H        34        0    0.0000
    209 H         134.3525   42.8663   64.4328 H        34        0    0.0000
    210 H         132.9403   42.8236   65.4827 H        34        0    0.0000
    211 C         134.7122   41.8889   66.3524 C.3      35        0    0.0000
    212 C         134.2834   42.6270   67.6253 C.3      35        0    0.0000
    213 H         134.6894   40.8050   66.5204 H        35        0    0.0000
    214 H         135.7479   42.1467   66.0989 H        35        0    0.0000
    215 H         134.8867   43.5340   67.7556 H        35        0    0.0000
    216 H         133.2395   42.9529   67.5377 H        35        0    0.0000
    217 C         134.4284   41.7354   68.9065 C.3      36        0    0.0000
    218 C         135.0925   42.4873   70.0653 C.3      36        0    0.0000
    219 H         133.4336   41.3839   69.2072 H        36        0    0.0000
    220 H         135.0141   40.8434   68.6521 H        36        0    0.0000
    221 H         135.9694   43.0380   69.7029 H        36        0    0.0000
    222 H         134.4001   43.2325   70.4761 H        36        0    0.0000
    223 C         135.5414   41.5248   71.2184 C.3      37        0    0.0000
    224 C         136.1657   42.2811   72.3962 C.3      37        0    0.0000
    225 H         134.6707   40.9509   71.5590 H        37        0    0.0000
    226 H         136.2585   40.7995   70.8145 H        37        0    0.0000
    227 H         137.0737   42.8028   72.0694 H        37        0    0.0000
    228 H         135.4732   43.0509   72.7585 H        37        0    0.0000
    229 C         136.5308   41.3291   73.5870 C.3      38        0    0.0000
    230 C         136.9973   42.1013   74.8260 C.3      38        0    0.0000
    231 H         135.6536   40.7179   73.8329 H        38        0    0.0000
    232 H         137.3153   40.6363   73.2581 H        38        0    0.0000
    233 H         138.0820   42.2601   74.7839 H        38        0    0.0000
    234 H         136.5339   43.0954   74.8462 H        38        0    0.0000
    235 C         136.6476   41.3535   76.1586 C.3      39        0    0.0000
    236 C         136.9032   42.2212   77.3959 C.3      39        0    0.0000
    237 H         135.5950   41.0460   76.1258 H        39        0    0.0000
    238 H         137.2428   40.4337   76.2147 H        39        0    0.0000
    239 H         137.9679   42.4772   77.4623 H        39        0    0.0000
    240 H         136.3562   43.1683   77.3107 H        39        0    0.0000
    241 C         136.4718   41.5060   78.7225 C.3      40        0    0.0000
    242 C         137.5949   41.4897   79.7653 C.3      40        0    0.0000
    243 H         135.5892   42.0159   79.1282 H        40        0    0.0000
    244 H         136.1624   40.4803   78.4868 H        40        0    0.0000
    245 H         138.5646   41.6446   79.2762 H        40        0    0.0000
    246 H         137.4632   42.3175   80.4730 H        40        0    0.0000
    247 C         137.6424   40.1429   80.5662 C.3      41        0    0.0000
    248 C         139.0334   39.4999   80.5393 C.3      41        0    0.0000
    249 H         137.3374   40.3366   81.6021 H        41        0    0.0000
    250 H         136.9010   39.4536   80.1432 H        41        0    0.0000
    251 H         139.6134   39.8932   79.6953 H        41        0    0.0000
    252 H         139.5861   39.7609   81.4503 H        41        0    0.0000
    253 C         138.9638   37.9383   80.4205 C.3      42        0    0.0000
    254 C         140.2346   37.2588   80.9424 C.3      42        0    0.0000
    255 H         138.0895   37.5799   80.9779 H        42        0    0.0000
    256 H         138.7986   37.6707   79.3695 H        42        0    0.0000
    257 H         141.0400   37.3486   80.2029 H        42        0    0.0000
    258 H         140.5843   37.7630   81.8518 H        42        0    0.0000
    259 C         140.0085   35.7407   81.2614 C.3      43        0    0.0000
    260 C         140.7128   35.3071   82.5517 C.3      43        0    0.0000
    261 H         138.9305   35.5527   81.3398 H        43        0    0.0000
    262 H         140.3716   35.1438   80.4156 H        43        0    0.0000
    263 H         141.1921   34.3307   82.4087 H        43        0    0.0000
    264 H         141.5115   36.0166   82.8009 H        43        0    0.0000
    265 C         139.7246   35.2120   83.7649 C.3      44        0    0.0000
    266 C         140.4125   34.7013   85.0357 C.3      44        0    0.0000
    267 H         139.2894   36.2028   83.9449 H        44        0    0.0000
    268 H         138.8946   34.5479   83.4936 H        44        0    0.0000
    269 H         140.6235   33.6286   84.9441 H        44        0    0.0000
    270 H         141.3796   35.2024   85.1673 H        44        0    0.0000
    271 C         139.5424   34.9375   86.3181 C.3      45        0    0.0000
    272 C         140.2806   34.5422   87.6018 C.3      45        0    0.0000
    273 H         139.2546   35.9953   86.3602 H        45        0    0.0000
    274 H         138.6133   34.3616   86.2260 H        45        0    0.0000
    275 H         140.4746   33.4625   87.6069 H        45        0    0.0000
    276 H         141.2584   35.0381   87.6413 H        45        0    0.0000
    277 C         139.4718   34.9164   88.8915 C.3      46        0    0.0000
    278 C         140.2180   34.5374   90.1754 C.3      46        0    0.0000
    279 H         139.2664   35.9940   88.8799 H        46        0    0.0000
    280 H         138.4992   34.4099   88.8582 H        46        0    0.0000
    281 H         140.4068   33.4569   90.1958 H        46        0    0.0000
    282 H         141.1984   35.0290   90.1998 H        46        0    0.0000
    283 C         139.4209   34.9354   91.4653 C.3      47        0    0.0000
    284 C         140.1669   34.5561   92.7493 C.3      47        0    0.0000
    285 H         139.2323   36.0159   91.4451 H        47        0    0.0000
    286 H         138.4404   34.4439   91.4408 H        47        0    0.0000
    287 H         140.3546   33.4754   92.7701 H        47        0    0.0000
    288 H         141.1479   35.0466   92.7732 H        47        0    0.0000
    289 C         139.3706   34.9556   94.0391 C.3      48        0    0.0000
    290 C         140.1187   34.5804   95.3231 C.3      48        0    0.0000
    291 H         139.1802   36.0357   94.0167 H        48        0    0.0000
    292 H         138.3909   34.4624   94.0168 H        48        0    0.0000
    293 H         140.3064   33.4997   95.3470 H        48        0    0.0000
    294 H         141.0997   35.0711   95.3440 H        48        0    0.0000
    295 C         139.3244   34.9838   96.6130 C.3      49        0    0.0000
    296 C         140.0706   34.6048   97.8970 C.3      49        0    0.0000
    297 H         139.1393   36.0649   96.5906 H        49        0    0.0000
    298 H         138.3422   34.4956   96.5906 H        49        0    0.0000
    299 H         140.2528   33.5233   97.9209 H        49        0    0.0000
    300 H         141.0540   35.0905   97.9179 H        49        0    0.0000
    301 C         139.2783   35.0123   99.1868 C.3      50        0    0.0000
    302 C         140.0222   34.6288  100.4708 C.3      50        0    0.0000
    303 H         139.0992   36.0944   99.1648 H        50        0    0.0000
    304 H         138.2934   34.5295   99.1642 H        50        0    0.0000
    305 H         140.1978   33.5462  100.4947 H        50        0    0.0000
    306 H         141.0085   35.1085  100.4917 H        50        0    0.0000
    307 C         139.2324   35.0412  101.7607 C.3      51        0    0.0000
    308 C         139.9743   34.6540  103.0447 C.3      51        0    0.0000
    309 H         139.0594   36.1243  101.7383 H        51        0    0.0000
    310 H         138.2449   34.5639  101.7384 H        51        0    0.0000
    311 H         140.1447   33.5705  103.0685 H        51        0    0.0000
    312 H         140.9631   35.1289  103.0656 H        51        0    0.0000
    313 C         139.1865   35.0700  104.3346 C.3      52        0    0.0000
    314 C         139.9270   34.6801  105.6186 C.3      52        0    0.0000
    315 H         139.0181   36.1539  104.3118 H        52        0    0.0000
    316 H         138.1970   34.5969  104.3125 H        52        0    0.0000
    317 H         140.0988   33.5968  105.6395 H        52        0    0.0000
    318 H         140.9150   35.1563  105.6424 H        52        0    0.0000
    319 C         139.1366   35.0913  106.9084 C.3      53        0    0.0000
    320 C         139.8779   34.7030  108.1924 C.3      53        0    0.0000
    321 H         138.9637   36.1744  106.8868 H        53        0    0.0000
    322 H         138.1491   34.6141  106.8852 H        53        0    0.0000
    323 H         140.0462   33.6192  108.2165 H        53        0    0.0000
    324 H         140.8676   35.1760  108.2131 H        53        0    0.0000
    325 C         139.0910   35.1209  109.4822 C.3      54        0    0.0000
    326 C         139.8318   34.7314  110.7663 C.3      54        0    0.0000
    327 H         138.9235   36.2048  109.4586 H        54        0    0.0000
    328 H         138.1011   34.6486  109.4611 H        54        0    0.0000
    329 H         140.0051   33.6483  110.7867 H        54        0    0.0000
    330 H         140.8191   35.2090  110.7906 H        54        0    0.0000
    331 C         139.0405   35.1409  112.0561 C.3      55        0    0.0000
    332 C         139.7829   34.7549  113.3401 C.3      55        0    0.0000
    333 H         138.8646   36.2236  112.0342 H        55        0    0.0000
    334 H         138.0542   34.6610  112.0331 H        55        0    0.0000
    335 H         139.9608   33.6725  113.3609 H        55        0    0.0000
    336 H         140.7683   35.2365  113.3641 H        55        0    0.0000
    337 C         138.9902   35.1616  114.6299 C.3      56        0    0.0000
    338 C         139.7330   34.7761  115.9139 C.3      56        0    0.0000
    339 H         138.8121   36.2439  114.6089 H        56        0    0.0000
    340 H         138.0050   34.6797  114.6061 H        56        0    0.0000
    341 H         139.9031   33.6926  115.9393 H        56        0    0.0000
    342 H         140.7218   35.2508  115.9334 H        56        0    0.0000
    343 C         138.9463   35.1943  117.2037 C.3      57        0    0.0000
    344 C         139.6870   34.8049  118.4878 C.3      57        0    0.0000
    345 H         138.7790   36.2783  117.1800 H        57        0    0.0000
    346 H         137.9562   34.7223  117.1827 H        57        0    0.0000
    347 H         139.8646   33.7225  118.5060 H        57        0    0.0000
    348 H         140.6724   35.2863  118.5143 H        57        0    0.0000
    349 C         138.8925   35.2085  119.7776 C.3      58        0    0.0000
    350 C         139.6348   34.8220  121.0616 C.3      58        0    0.0000
    351 H         138.7128   36.2905  119.7581 H        58        0    0.0000
    352 H         137.9081   34.7251  119.7522 H        58        0    0.0000
    353 H         140.5003   35.4800  121.2083 H        58        0    0.0000
    354 H         138.9809   34.9630  121.9311 H        58        0    0.0000
    355 C         140.1293   33.3346  121.0372 C.3      59        0    0.0000
    356 C         141.2454   33.0768  122.0555 C.3      59        0    0.0000
    357 H         139.2763   32.6750  121.2390 H        59        0    0.0000
    358 H         140.4803   33.0952  120.0257 H        59        0    0.0000
    359 H         142.0985   33.7364  121.8537 H        59        0    0.0000
    360 H         140.8944   33.3162  123.0670 H        59        0    0.0000
    361 H         141.5893   32.0426  122.0386 H        59        0    0.0000
    362 H          99.2798   35.8687  121.7450 H         0        0    0.0000
@<TRIPOS>BOND
     1     1     2      1
     2     1     3      1
     3     1     4      1
     4     1   362      H
     5     2     5      1
     6     2     6      1
     7     2     7      1
     8     7     8      1
     9     7     9      1
    10     7    10      1
    11     8    11      1
    12     8    12      1
    13     8    13      1
    14    13    14      1
    15    13    15      1
    16    13    16      1
    17    14    17      1
    18    14    18      1
    19    14    19      1
    20    19    20      1
    21    19    21      1
    22    19    22      1
    23    20    23      1
    24    20    24      1
    25    20    25      1
    26    25    26      1
    27    25    27      1
    28    25    28      1
    29    26    29      1
    30    26    30      1
    31    26    31      1
    32    31    32      1
    33    31    33      1
    34    31    34      1
    35    32    35      1
    36    32    36      1
    37    32    37      1
    38    37    38      1
    39    37    39      1
    40    37    40      1
    41    38    41      1
    42    38    42      1
    43    38    43      1
    44    43    44      1
    45    43    45      1
    46    43    46      1
    47    44    47      1
    48    44    48      1
    49    44    49      1
    50    49    50      1
    51    49    51      1
    52    49    52      1
    53    50    53      1
    54    50    54      1
    55    50    55      1
    56    55    56      1
    57    55    57      1
    58    55    58      1
    59    56    59      1
    60    56    60      1
    61    56    61      1
    62    61    62      1
    63    61    63      1
    64    61    64      1
    65    62    65      1
    66    62    66      1
    67    62    67      1
    68    67    68      1
    69    67    69      1
    70    67    70      1
    71    68    71      1
    72    68    72      1
    73    68    73      1
    74    73    74      1
    75    73    75      1
    76    73    76      1
    77    74    77      1
    78    74    78      1
    79    74    79      1
    80    79    80      1
    81    79    81      1
    82    79    82      1
    83    80    83      1
    84    80    84      1
    85    80    85      1
    86    85    86      1
    87    85    87      1
    88    85    88      1
    89    86    89      1
    90    86    90      1
    91    86    91      1
    92    91    92      1
    93    91    93      1
    94    91    94      1
    95    92    95      1
    96    92    96      1
    97    92    97      1
    98    97    98      1
    99    97    99      1
   100    97   100      1
   101    98   101      1
   102    98   102      1
   103    98   103      1
   104   103   104      1
   105   103   105      1
   106   103   106      1
   107   104   107      1
   108   104   108      1
   109   104   109      1
   110   109   110      1
   111   109   111      1
   112   109   112      1
   113   110   113      1
   114   110   114      1
   115   110   115      1
   116   115   116      1
   117   115   117      1
   118   115   118      1
   119   116   119      1
   120   116   120      1
   121   116   121      1
   122   121   122      1
   123   121   123      1
   124   121   124      1
   125   122   125      1
   126   122   126      1
   127   122   127      1
   128   127   128      1
   129   127   129      1
   130   127   130      1
   131   128   131      1
   132   128   132      1
   133   128   133      1
   134   133   134      1
   135   133   135      1
   136   133   136      1
   137   134   137      1
   138   134   138      1
   139   134   139      1
   140   139   140      1
   141   139   141      1
   142   139   142      1
   143   140   143      1
   144   140   144      1
   145   140   145      1
   146   145   146      1
   147   145   147      1
   148   145   148      1
   149   146   149      1
   150   146   150      1
   151   146   151      1
   152   151   152      1
   153   151   153      1
   154   151   154      1
   155   152   155      1
   156   152   156      1
   157   152   157      1
   158   157   158      1
   159   157   159      1
   160   157   160      1
   161   158   161      1
   162   158   162      1
   163   158   163      1
   164   163   164      1
   165   163   165      1
   166   163   166      1
   167   164   167      1
   168   164   168      1
   169   164   169      1
   170   169   170      1
   171   169   171      1
   172   169   172      1
   173   170   173      1
   174   170   174      1
   175   170   175      1
   176   175   176      1
   177   175   177      1
   178   175   178      1
   179   176   179      1
   180   176   180      1
   181   176   181      1
   182   181   182      1
   183   181   183      1
   184   181   184      1
   185   182   185      1
   186   182   186      1
   187   182   187      1
   188   187   188      1
   189   187   189      1
   190   187   190      1
   191   188   191      1
   192   188   192      1
   193   188   193      1
   194   193   194      1
   195   193   195      1
   196   193   196      1
   197   194   197      1
   198   194   198      1
   199   194   199      1
   200   199   200      1
   201   199   201      1
   202   199   202      1
   203   200   203      1
   204   200   204      1
   205   200   205      1
   206   205   206      1
   207   205   207      1
   208   205   208      1
   209   206   209      1
   210   206   210      1
   211   206   211      1
   212   211   212      1
   213   211   213      1
   214   211   214      1
   215   212   215      1
   216   212   216      1
   217   212   217      1
   218   217   218      1
   219   217   219      1
   220   217   220      1
   221   218   221      1
   222   218   222      1
   223   218   223      1
   224   223   224      1
   225   223   225      1
   226   223   226      1
   227   224   227      1
   228   224   228      1
   229   224   229      1
   230   229   230      1
   231   229   231      1
   232   229   232      1
   233   230   233      1
   234   230   234      1
   235   230   235      1
   236   235   236      1
   237   235   237      1
   238   235   238      1
   239   236   239      1
   240   236   240      1
   241   236   241      1
   242   241   242      1
   243   241   243      1
   244   241   244      1
   245   242   245      1
   246   242   246      1
   247   242   247      1
   248   247   248      1
   249   247   249      1
   250   247   250      1
   251   248   251      1
   252   248   252      1
   253   248   253      1
   254   253   254      1
   255   253   255      1
   256   253   256      1
   257   254   257      1
   258   254   258      1
   259   254   259      1
   260   259   260      1
   261   259   261      1
   262   259   262      1
   263   260   263      1
   264   260   264      1
   265   260   265      1
   266   265   266      1
   267   265   267      1
   268   265   268      1
   269   266   269      1
   270   266   270      1
   271   266   271      1
   272   271   272      1
   273   271   273      1
   274   271   274      1
   275   272   275      1
   276   272   276      1
   277   272   277      1
   278   277   278      1
   279   277   279      1
   280   277   280      1
   281   278   281      1
   282   278   282      1
   283   278   283      1
   284   283   284      1
   285   283   285      1
   286   283   286      1
   287   284   287      1
   288   284   288      1
   289   284   289      1
   290   289   290      1
   291   289   291      1
   292   289   292      1
   293   290   293      1
   294   290   294      1
   295   290   295      1
   296   295   296      1
   297   295   297      1
   298   295   298      1
   299   296   299      1
   300   296   300      1
   301   296   301      1
   302   301   302      1
   303   301   303      1
   304   301   304      1
   305   302   305      1
   306   302   306      1
   307   302   307      1
   308   307   308      1
   309   307   309      1
   310   307   310      1
   311   308   311      1
   312   308   312      1
   313   308   313      1
   314   313   314      1
   315   313   315      1
   316   313   316      1
   317   314   317      1
   318   314   318      1
   319   314   319      1
   320   319   320      1
   321   319   321      1
   322   319   322      1
   323   320   323      1
   324   320   324      1
   325   320   325      1
   326   325   326      1
   327   325   327      1
   328   325   328      1
   329   326   329      1
   330   326   330      1
   331   326   331      1
   332   331   332      1
   333   331   333      1
   334   331   334      1
   335   332   335      1
   336   332   336      1
   337   332   337      1
   338   337   338      1
   339   337   339      1
   340   337   340      1
   341   338   341      1
   342   338   342      1
   343   338   343      1
   344   343   344      1
   345   343   345      1
   346   343   346      1
   347   344   347      1
   348   344   348      1
   349   344   349      1
   350   349   350      1
   351   349   351      1
   352   349   352      1
   353   350   353      1
   354   350   354      1
   355   350   355      1
   356   355   356      1
   357   355   357      1
   358   355   358      1
   359   356   359      1
   360   356   360      1
   361   356   361      H
