###
### Created by PolyChef-cpp17 on Thu Feb 27 19:40:28 2025
###

@<TRIPOS>MOLECULE
NO_INFO
302 301 1 0 0
SMALL
USER_CHARGES


@<TRIPOS>ATOM
      1 C          59.2798  139.7887  120.6551 C.3       0        0    0.0000
      2 C          58.4513  138.6375  120.0742 C.3       0        0    0.0000
      3 H          58.8875  140.7502  120.3015 H         0        0    0.0000
      4 H          60.3162  139.7221  120.3014 H         0        0    0.0000
      5 H          58.4064  137.8076  120.7903 H         0        0    0.0000
      6 H          57.4178  138.9651  119.9065 H         0        0    0.0000
      7 C          59.0388  138.1063  118.7214 C.3       1        0    0.0000
      8 C          59.6348  139.2297  117.8660 C.3       1        0    0.0000
      9 H          59.8058  137.3531  118.9405 H         1        0    0.0000
     10 H          58.2429  137.5934  118.1673 H         1        0    0.0000
     11 H          58.9424  140.0797  117.8260 H         1        0    0.0000
     12 H          60.5612  139.5992  118.3228 H         1        0    0.0000
     13 C          59.9449  138.7613  116.4025 C.3       2        0    0.0000
     14 C          59.8842  139.9170  115.3976 C.3       2        0    0.0000
     15 H          60.9390  138.2976  116.3828 H         2        0    0.0000
     16 H          59.2274  137.9804  116.1216 H         2        0    0.0000
     17 H          58.9622  140.4935  115.5426 H         2        0    0.0000
     18 H          60.7184  140.6086  115.5687 H         2        0    0.0000
     19 C          59.9390  139.4168  113.9129 C.3       3        0    0.0000
     20 C          59.8145  140.5668  112.9075 C.3       3        0    0.0000
     21 H          60.8827  138.8799  113.7553 H         3        0    0.0000
     22 H          59.1327  138.6898  113.7547 H         3        0    0.0000
     23 H          58.8753  141.1096  113.0713 H         3        0    0.0000
     24 H          60.6263  141.2890  113.0596 H         3        0    0.0000
     25 C          59.8560  140.0652  111.4229 C.3       4        0    0.0000
     26 C          59.7757  141.2192  110.4174 C.3       4        0    0.0000
     27 H          60.7803  139.4950  111.2680 H         4        0    0.0000
     28 H          59.0248  139.3676  111.2620 H         4        0    0.0000
     29 H          58.8475  141.7846  110.5671 H         4        0    0.0000
     30 H          60.6024  141.9210  110.5835 H         4        0    0.0000
     31 C          59.8284  140.7184  108.9329 C.3       5        0    0.0000
     32 C          58.7203  141.3351  108.0721 C.3       5        0    0.0000
     33 H          60.8116  140.9628  108.5120 H         5        0    0.0000
     34 H          59.7457  139.6245  108.9255 H         5        0    0.0000
     35 H          57.7697  141.3257  108.6196 H         5        0    0.0000
     36 H          58.9507  142.3862  107.8588 H         5        0    0.0000
     37 C          58.5294  140.5741  106.7149 C.3       6        0    0.0000
     38 C          58.7837  141.4763  105.5024 C.3       6        0    0.0000
     39 H          59.2099  139.7139  106.6931 H         6        0    0.0000
     40 H          57.5100  140.1704  106.6763 H         6        0    0.0000
     41 H          57.8502  141.9624  105.1928 H         6        0    0.0000
     42 H          59.4827  142.2784  105.7702 H         6        0    0.0000
     43 C          59.3684  140.6826  104.2835 C.3       7        0    0.0000
     44 C          58.7092  141.0835  102.9592 C.3       7        0    0.0000
     45 H          60.4502  140.8580  104.2335 H         7        0    0.0000
     46 H          59.2313  139.6089  104.4621 H         7        0    0.0000
     47 H          57.6181  141.0989  103.0716 H         7        0    0.0000
     48 H          59.0117  142.1008  102.6813 H         7        0    0.0000
     49 C          59.0830  140.1081  101.7903 C.3       8        0    0.0000
     50 C          58.8827  140.7488  100.4125 C.3       8        0    0.0000
     51 H          60.1275  139.7951  101.9113 H         8        0    0.0000
     52 H          58.4707  139.2019  101.8764 H         8        0    0.0000
     53 H          57.8208  140.9736  100.2530 H         8        0    0.0000
     54 H          59.4182  141.7049  100.3608 H         8        0    0.0000
     55 C          59.3840  139.8253   99.2492 C.3       9        0    0.0000
     56 C          59.0675  140.4081   97.8674 C.3       9        0    0.0000
     57 H          60.4657  139.6773   99.3563 H         9        0    0.0000
     58 H          58.9187  138.8376   99.3564 H         9        0    0.0000
     59 H          57.9883  140.5787   97.7693 H         9        0    0.0000
     60 H          59.5528  141.3851   97.7511 H         9        0    0.0000
     61 C          59.5383  139.4684   96.7043 C.3      10        0    0.0000
     62 C          59.2399  140.0603   95.3225 C.3      10        0    0.0000
     63 H          60.6148  139.2859   96.8110 H        10        0    0.0000
     64 H          59.0417  138.4961   96.8123 H        10        0    0.0000
     65 H          58.1628  140.2378   95.2138 H        10        0    0.0000
     66 H          59.7321  141.0351   95.2165 H        10        0    0.0000
     67 C          59.7176  139.1241   94.1594 C.3      11        0    0.0000
     68 C          59.4136  139.7132   92.7775 C.3      11        0    0.0000
     69 H          60.7956  138.9503   94.2654 H        11        0    0.0000
     70 H          59.2290  138.1479   94.2679 H        11        0    0.0000
     71 H          58.3357  139.8881   92.6719 H        11        0    0.0000
     72 H          59.9032  140.6889   92.6685 H        11        0    0.0000
     73 C          59.8898  138.7762   91.6144 C.3      12        0    0.0000
     74 C          59.5915  139.3683   90.2325 C.3      12        0    0.0000
     75 H          60.9667  138.5975   91.7226 H        12        0    0.0000
     76 H          59.3965  137.8020   91.7206 H        12        0    0.0000
     77 H          58.5144  139.5455   90.1237 H        12        0    0.0000
     78 H          60.0835  140.3431   90.1268 H        12        0    0.0000
     79 C          60.0696  138.4323   89.0694 C.3      13        0    0.0000
     80 C          59.7638  139.0204   87.6875 C.3      13        0    0.0000
     81 H          61.1479  138.2600   89.1747 H        13        0    0.0000
     82 H          59.5823  137.4554   89.1786 H        13        0    0.0000
     83 H          58.6866  139.2015   87.5857 H        13        0    0.0000
     84 H          60.2587  139.9930   87.5747 H        13        0    0.0000
     85 C          60.2299  138.0784   86.5245 C.3      14        0    0.0000
     86 C          59.9247  138.6668   85.1426 C.3      14        0    0.0000
     87 H          61.3070  137.8969   86.6265 H        14        0    0.0000
     88 H          59.7346  137.1059   86.6370 H        14        0    0.0000
     89 H          58.8630  138.9347   85.0740 H        14        0    0.0000
     90 H          60.4935  139.5930   84.9942 H        14        0    0.0000
     91 C          60.2703  137.6702   83.9829 C.3      15        0    0.0000
     92 C          59.9258  138.2423   82.6034 C.3      15        0    0.0000
     93 H          61.3387  137.4263   84.0330 H        15        0    0.0000
     94 H          59.7250  136.7327   84.1482 H        15        0    0.0000
     95 H          58.8402  138.2202   82.4474 H        15        0    0.0000
     96 H          60.2311  139.2945   82.5457 H        15        0    0.0000
     97 C          60.6194  137.4505   81.4418 C.3      16        0    0.0000
     98 C          60.3554  138.0813   80.0702 C.3      16        0    0.0000
     99 H          61.6984  137.4106   81.6361 H        16        0    0.0000
    100 H          60.2584  136.4146   81.4552 H        16        0    0.0000
    101 H          60.4797  137.3301   79.2804 H        16        0    0.0000
    102 H          59.3175  138.4319   80.0109 H        16        0    0.0000
    103 C          61.3135  139.2867   79.7763 C.3      17        0    0.0000
    104 C          61.1552  139.8198   78.3481 C.3      17        0    0.0000
    105 H          61.1097  140.0852   80.5005 H        17        0    0.0000
    106 H          62.3486  138.9650   79.9452 H        17        0    0.0000
    107 H          60.1621  140.2685   78.2220 H        17        0    0.0000
    108 H          61.8866  140.6155   78.1603 H        17        0    0.0000
    109 C          61.3426  138.6966   77.2706 C.3      18        0    0.0000
    110 C          61.1426  139.2208   75.8443 C.3      18        0    0.0000
    111 H          62.3472  138.2689   77.3768 H        18        0    0.0000
    112 H          60.6319  137.8867   77.4768 H        18        0    0.0000
    113 H          61.4753  138.4696   75.1174 H        18        0    0.0000
    114 H          60.0763  139.3936   75.6531 H        18        0    0.0000
    115 C          61.9249  140.5547   75.5865 C.3      19        0    0.0000
    116 C          61.7157  141.0850   74.1638 C.3      19        0    0.0000
    117 H          61.5983  141.3033   76.3188 H        19        0    0.0000
    118 H          62.9923  140.3796   75.7695 H        19        0    0.0000
    119 H          61.5763  140.2489   73.4674 H        19        0    0.0000
    120 H          60.8009  141.6889   74.1182 H        19        0    0.0000
    121 C          62.9219  141.9569   73.6714 C.3      20        0    0.0000
    122 C          62.6799  142.5495   72.2788 C.3      20        0    0.0000
    123 H          63.0965  142.7608   74.3972 H        20        0    0.0000
    124 H          63.8268  141.3368   73.6644 H        20        0    0.0000
    125 H          62.9019  141.8012   71.5079 H        20        0    0.0000
    126 H          61.6225  142.8175   72.1626 H        20        0    0.0000
    127 C          63.5558  143.8225   72.0145 C.3      21        0    0.0000
    128 C          63.3201  144.4102   70.6188 C.3      21        0    0.0000
    129 H          63.3294  144.5730   72.7819 H        21        0    0.0000
    130 H          64.6130  143.5559   72.1368 H        21        0    0.0000
    131 H          63.6038  143.6803   69.8505 H        21        0    0.0000
    132 H          62.2531  144.6207   70.4746 H        21        0    0.0000
    133 C          64.1318  145.7308   70.3854 C.3      22        0    0.0000
    134 C          63.6254  146.5169   69.1710 C.3      22        0    0.0000
    135 H          64.0663  146.3503   71.2884 H        22        0    0.0000
    136 H          65.1908  145.4765   70.2539 H        22        0    0.0000
    137 H          63.7891  145.9382   68.2535 H        22        0    0.0000
    138 H          62.5435  146.6791   69.2524 H        22        0    0.0000
    139 C          64.3353  147.9069   69.0250 C.3      23        0    0.0000
    140 C          63.3438  149.0369   68.7266 C.3      23        0    0.0000
    141 H          64.8841  148.1226   69.9501 H        23        0    0.0000
    142 H          65.0819  147.8403   68.2240 H        23        0    0.0000
    143 H          63.2187  149.1512   67.6426 H        23        0    0.0000
    144 H          62.3558  148.7876   69.1331 H        23        0    0.0000
    145 C          63.8068  150.4081   69.3290 C.3      24        0    0.0000
    146 C          64.6121  151.2411   68.3258 C.3      24        0    0.0000
    147 H          62.9216  150.9670   69.6572 H        24        0    0.0000
    148 H          64.4080  150.2151   70.2262 H        24        0    0.0000
    149 H          65.0117  150.5943   67.5349 H        24        0    0.0000
    150 H          63.9590  151.9728   67.8343 H        24        0    0.0000
    151 C          65.8021  152.0023   69.0054 C.3      25        0    0.0000
    152 C          67.1246  151.7982   68.2581 C.3      25        0    0.0000
    153 H          65.5577  153.0707   69.0525 H        25        0    0.0000
    154 H          65.8981  151.6551   70.0417 H        25        0    0.0000
    155 H          67.0734  150.8907   67.6438 H        25        0    0.0000
    156 H          67.3011  152.6346   67.5705 H        25        0    0.0000
    157 C          68.3460  151.6796   69.2336 C.3      26        0    0.0000
    158 C          69.0273  153.0306   69.4782 C.3      26        0    0.0000
    159 H          67.9995  151.2555   70.1842 H        26        0    0.0000
    160 H          69.0658  150.9659   68.8139 H        26        0    0.0000
    161 H          70.1177  152.9108   69.4602 H        26        0    0.0000
    162 H          68.7740  153.7310   68.6727 H        26        0    0.0000
    163 C          68.6114  153.6660   70.8496 C.3      27        0    0.0000
    164 C          69.8214  154.1498   71.6564 C.3      27        0    0.0000
    165 H          67.9277  154.5025   70.6589 H        27        0    0.0000
    166 H          68.0471  152.9232   71.4269 H        27        0    0.0000
    167 H          70.7044  153.5481   71.4075 H        27        0    0.0000
    168 H          70.0613  155.1865   71.3896 H        27        0    0.0000
    169 C          69.5750  154.0699   73.2025 C.3      28        0    0.0000
    170 C          70.4431  155.0645   73.9812 C.3      28        0    0.0000
    171 H          68.5133  154.2609   73.4017 H        28        0    0.0000
    172 H          69.7799  153.0466   73.5408 H        28        0    0.0000
    173 H          71.5022  154.7953   73.8848 H        28        0    0.0000
    174 H          70.3340  156.0707   73.5579 H        28        0    0.0000
    175 C          70.0706  155.1135   75.5031 C.3      29        0    0.0000
    176 C          71.0292  155.9985   76.3075 C.3      29        0    0.0000
    177 H          69.0428  155.4837   75.6039 H        29        0    0.0000
    178 H          70.0779  154.0916   75.9020 H        29        0    0.0000
    179 H          72.0612  155.6493   76.1786 H        29        0    0.0000
    180 H          70.9958  157.0284   75.9309 H        29        0    0.0000
    181 C          70.6865  156.0084   77.8371 C.3      30        0    0.0000
    182 C          71.7026  156.8132   78.6549 C.3      30        0    0.0000
    183 H          69.6807  156.4254   77.9714 H        30        0    0.0000
    184 H          70.6489  154.9730   78.1978 H        30        0    0.0000
    185 H          72.7120  156.4120   78.5005 H        30        0    0.0000
    186 H          71.7216  157.8548   78.3111 H        30        0    0.0000
    187 C          71.3801  156.7932   80.1888 C.3      31        0    0.0000
    188 C          72.6331  156.5710   81.0430 C.3      31        0    0.0000
    189 H          70.9020  157.7420   80.4621 H        31        0    0.0000
    190 H          70.6457  156.0023   80.3855 H        31        0    0.0000
    191 H          73.2494  155.7750   80.6069 H        31        0    0.0000
    192 H          73.2494  157.4786   81.0499 H        31        0    0.0000
    193 C          72.2835  156.1863   82.5219 C.3      32        0    0.0000
    194 C          72.8361  157.1984   83.5315 C.3      32        0    0.0000
    195 H          71.1932  156.1140   82.6202 H        32        0    0.0000
    196 H          72.6856  155.1875   82.7320 H        32        0    0.0000
    197 H          73.8639  156.9316   83.8074 H        32        0    0.0000
    198 H          72.8807  158.1963   83.0779 H        32        0    0.0000
    199 C          71.9667  157.2738   84.8338 C.3      33        0    0.0000
    200 C          72.7136  156.7428   86.0623 C.3      33        0    0.0000
    201 H          71.6655  158.3158   84.9980 H        33        0    0.0000
    202 H          71.0447  156.7002   84.6772 H        33        0    0.0000
    203 H          73.3813  155.9225   85.7712 H        33        0    0.0000
    204 H          73.3487  157.5307   86.4861 H        33        0    0.0000
    205 C          71.7366  156.2283   87.1751 C.3      34        0    0.0000
    206 C          72.2770  156.4845   88.5863 C.3      34        0    0.0000
    207 H          70.7652  156.7222   87.0488 H        34        0    0.0000
    208 H          71.5658  155.1548   87.0269 H        34        0    0.0000
    209 H          73.1483  155.8459   88.7771 H        34        0    0.0000
    210 H          72.6216  157.5223   88.6744 H        34        0    0.0000
    211 C          71.2001  156.2140   89.6930 C.3      35        0    0.0000
    212 C          71.7669  156.3783   91.1074 C.3      35        0    0.0000
    213 H          70.3584  156.9013   89.5428 H        35        0    0.0000
    214 H          70.8053  155.1989   89.5615 H        35        0    0.0000
    215 H          72.6226  155.7066   91.2502 H        35        0    0.0000
    216 H          72.1418  157.3999   91.2461 H        35        0    0.0000
    217 C          70.6984  156.0775   92.2143 C.3      36        0    0.0000
    218 C          71.2655  156.2404   93.6288 C.3      36        0    0.0000
    219 H          69.8432  156.7498   92.0722 H        36        0    0.0000
    220 H          70.3228  155.0562   92.0750 H        36        0    0.0000
    221 H          72.1225  155.5703   93.7700 H        36        0    0.0000
    222 H          71.6385  157.2626   93.7691 H        36        0    0.0000
    223 C          70.1981  155.9357   94.7357 C.3      37        0    0.0000
    224 C          70.7650  156.0997   96.1502 C.3      37        0    0.0000
    225 H          69.3408  156.6054   94.5941 H        37        0    0.0000
    226 H          69.8257  154.9133   94.5959 H        37        0    0.0000
    227 H          71.6212  155.4287   96.2924 H        37        0    0.0000
    228 H          71.1392  157.1216   96.2893 H        37        0    0.0000
    229 C          69.6968  155.7976   97.2570 C.3      38        0    0.0000
    230 C          70.2651  155.9568   98.6715 C.3      38        0    0.0000
    231 H          68.8423  156.4711   97.1170 H        38        0    0.0000
    232 H          69.3201  154.7770   97.1157 H        38        0    0.0000
    233 H          71.1228  155.2868   98.8099 H        38        0    0.0000
    234 H          70.6374  156.9788   98.8145 H        38        0    0.0000
    235 C          69.1988  155.6479   99.7784 C.3      39        0    0.0000
    236 C          69.7658  155.8116  101.1929 C.3      39        0    0.0000
    237 H          68.3397  156.3155   99.6379 H        39        0    0.0000
    238 H          68.8290  154.6247   99.6374 H        39        0    0.0000
    239 H          70.6205  155.1388  101.3358 H        39        0    0.0000
    240 H          70.1421  156.8328  101.3315 H        39        0    0.0000
    241 C          68.6967  155.5125  102.2997 C.3      40        0    0.0000
    242 C          69.2646  155.6730  103.7142 C.3      40        0    0.0000
    243 H          67.8431  156.1869  102.1583 H        40        0    0.0000
    244 H          68.3187  154.4922  102.1597 H        40        0    0.0000
    245 H          70.1258  155.0075  103.8516 H        40        0    0.0000
    246 H          69.6314  156.6969  103.8584 H        40        0    0.0000
    247 C          68.2003  155.3571  104.8210 C.3      41        0    0.0000
    248 C          68.7676  155.5193  106.2356 C.3      41        0    0.0000
    249 H          67.3385  156.0218  104.6829 H        41        0    0.0000
    250 H          67.8344  154.3329  104.6777 H        41        0    0.0000
    251 H          68.9103  156.5828  106.4640 H        41        0    0.0000
    252 H          68.0546  155.1314  106.9736 H        41        0    0.0000
    253 C          70.1360  154.7759  106.4157 C.3      42        0    0.0000
    254 C          70.7685  155.0471  107.7851 C.3      42        0    0.0000
    255 H          69.9735  153.6991  106.2830 H        42        0    0.0000
    256 H          70.8182  155.0924  105.6169 H        42        0    0.0000
    257 H          71.0714  154.1023  108.2533 H        42        0    0.0000
    258 H          71.6798  155.6464  107.6666 H        42        0    0.0000
    259 C          69.7911  155.7998  108.7524 C.3      43        0    0.0000
    260 C          70.2590  155.7429  110.2108 C.3      43        0    0.0000
    261 H          69.7042  156.8434  108.4257 H        43        0    0.0000
    262 H          68.7917  155.3566  108.6605 H        43        0    0.0000
    263 H          70.6606  154.7477  110.4385 H        43        0    0.0000
    264 H          71.0763  156.4568  110.3718 H        43        0    0.0000
    265 C          69.1021  156.0636  111.2189 C.3      44        0    0.0000
    266 C          69.5646  155.9851  112.6780 C.3      44        0    0.0000
    267 H          68.7113  157.0654  111.0015 H        44        0    0.0000
    268 H          68.2782  155.3600  111.0471 H        44        0    0.0000
    269 H          70.1756  155.0868  112.8311 H        44        0    0.0000
    270 H          70.2029  156.8447  112.9170 H        44        0    0.0000
    271 C          68.3610  155.9547  113.6819 C.3      45        0    0.0000
    272 C          68.8238  155.8976  115.1420 C.3      45        0    0.0000
    273 H          67.7415  156.8452  113.5183 H        45        0    0.0000
    274 H          67.7312  155.0862  113.4527 H        45        0    0.0000
    275 H          67.9666  156.0297  115.8137 H        45        0    0.0000
    276 H          69.2486  154.9107  115.3636 H        45        0    0.0000
    277 C          69.8955  156.9940  115.4688 C.3      46        0    0.0000
    278 C          70.4751  156.8376  116.8790 C.3      46        0    0.0000
    279 H          70.6986  156.9368  114.7236 H        46        0    0.0000
    280 H          69.4341  157.9833  115.3593 H        46        0    0.0000
    281 H          71.5210  156.5116  116.8218 H        46        0    0.0000
    282 H          70.4746  157.8055  117.3954 H        46        0    0.0000
    283 C          69.6703  155.8047  117.7409 C.3      47        0    0.0000
    284 C          70.0380  155.8767  119.2270 C.3      47        0    0.0000
    285 H          68.5977  155.9939  117.6092 H        47        0    0.0000
    286 H          69.8621  154.7961  117.3543 H        47        0    0.0000
    287 H          70.7822  155.1075  119.4680 H        47        0    0.0000
    288 H          70.5012  156.8451  119.4534 H        47        0    0.0000
    289 C          68.7915  155.6828  120.1575 C.3      48        0    0.0000
    290 C          69.1579  155.7632  121.6436 C.3      48        0    0.0000
    291 H          68.0448  156.4482  119.9123 H        48        0    0.0000
    292 H          68.3319  154.7118  119.9353 H        48        0    0.0000
    293 H          69.3869  156.8001  121.9191 H        48        0    0.0000
    294 H          68.3034  155.4552  122.2589 H        48        0    0.0000
    295 C          70.3893  154.8615  122.0015 C.3      49        0    0.0000
    296 C          71.1133  155.3416  123.2642 C.3      49        0    0.0000
    297 H          70.0444  153.8288  122.1353 H        49        0    0.0000
    298 H          71.0817  154.8546  121.1505 H        49        0    0.0000
    299 H          71.4582  156.3744  123.1303 H        49        0    0.0000
    300 H          70.4209  155.3485  124.1151 H        49        0    0.0000
    301 H          71.9695  154.7147  123.5130 H        49        0    0.0000
    302 H          59.2798  139.7887  121.7450 H         0        0    0.0000
@<TRIPOS>BOND
     1     1     2      1
     2     1     3      1
     3     1     4      1
     4     1   302      H
     5     2     5      1
     6     2     6      1
     7     2     7      1
     8     7     8      1
     9     7     9      1
    10     7    10      1
    11     8    11      1
    12     8    12      1
    13     8    13      1
    14    13    14      1
    15    13    15      1
    16    13    16      1
    17    14    17      1
    18    14    18      1
    19    14    19      1
    20    19    20      1
    21    19    21      1
    22    19    22      1
    23    20    23      1
    24    20    24      1
    25    20    25      1
    26    25    26      1
    27    25    27      1
    28    25    28      1
    29    26    29      1
    30    26    30      1
    31    26    31      1
    32    31    32      1
    33    31    33      1
    34    31    34      1
    35    32    35      1
    36    32    36      1
    37    32    37      1
    38    37    38      1
    39    37    39      1
    40    37    40      1
    41    38    41      1
    42    38    42      1
    43    38    43      1
    44    43    44      1
    45    43    45      1
    46    43    46      1
    47    44    47      1
    48    44    48      1
    49    44    49      1
    50    49    50      1
    51    49    51      1
    52    49    52      1
    53    50    53      1
    54    50    54      1
    55    50    55      1
    56    55    56      1
    57    55    57      1
    58    55    58      1
    59    56    59      1
    60    56    60      1
    61    56    61      1
    62    61    62      1
    63    61    63      1
    64    61    64      1
    65    62    65      1
    66    62    66      1
    67    62    67      1
    68    67    68      1
    69    67    69      1
    70    67    70      1
    71    68    71      1
    72    68    72      1
    73    68    73      1
    74    73    74      1
    75    73    75      1
    76    73    76      1
    77    74    77      1
    78    74    78      1
    79    74    79      1
    80    79    80      1
    81    79    81      1
    82    79    82      1
    83    80    83      1
    84    80    84      1
    85    80    85      1
    86    85    86      1
    87    85    87      1
    88    85    88      1
    89    86    89      1
    90    86    90      1
    91    86    91      1
    92    91    92      1
    93    91    93      1
    94    91    94      1
    95    92    95      1
    96    92    96      1
    97    92    97      1
    98    97    98      1
    99    97    99      1
   100    97   100      1
   101    98   101      1
   102    98   102      1
   103    98   103      1
   104   103   104      1
   105   103   105      1
   106   103   106      1
   107   104   107      1
   108   104   108      1
   109   104   109      1
   110   109   110      1
   111   109   111      1
   112   109   112      1
   113   110   113      1
   114   110   114      1
   115   110   115      1
   116   115   116      1
   117   115   117      1
   118   115   118      1
   119   116   119      1
   120   116   120      1
   121   116   121      1
   122   121   122      1
   123   121   123      1
   124   121   124      1
   125   122   125      1
   126   122   126      1
   127   122   127      1
   128   127   128      1
   129   127   129      1
   130   127   130      1
   131   128   131      1
   132   128   132      1
   133   128   133      1
   134   133   134      1
   135   133   135      1
   136   133   136      1
   137   134   137      1
   138   134   138      1
   139   134   139      1
   140   139   140      1
   141   139   141      1
   142   139   142      1
   143   140   143      1
   144   140   144      1
   145   140   145      1
   146   145   146      1
   147   145   147      1
   148   145   148      1
   149   146   149      1
   150   146   150      1
   151   146   151      1
   152   151   152      1
   153   151   153      1
   154   151   154      1
   155   152   155      1
   156   152   156      1
   157   152   157      1
   158   157   158      1
   159   157   159      1
   160   157   160      1
   161   158   161      1
   162   158   162      1
   163   158   163      1
   164   163   164      1
   165   163   165      1
   166   163   166      1
   167   164   167      1
   168   164   168      1
   169   164   169      1
   170   169   170      1
   171   169   171      1
   172   169   172      1
   173   170   173      1
   174   170   174      1
   175   170   175      1
   176   175   176      1
   177   175   177      1
   178   175   178      1
   179   176   179      1
   180   176   180      1
   181   176   181      1
   182   181   182      1
   183   181   183      1
   184   181   184      1
   185   182   185      1
   186   182   186      1
   187   182   187      1
   188   187   188      1
   189   187   189      1
   190   187   190      1
   191   188   191      1
   192   188   192      1
   193   188   193      1
   194   193   194      1
   195   193   195      1
   196   193   196      1
   197   194   197      1
   198   194   198      1
   199   194   199      1
   200   199   200      1
   201   199   201      1
   202   199   202      1
   203   200   203      1
   204   200   204      1
   205   200   205      1
   206   205   206      1
   207   205   207      1
   208   205   208      1
   209   206   209      1
   210   206   210      1
   211   206   211      1
   212   211   212      1
   213   211   213      1
   214   211   214      1
   215   212   215      1
   216   212   216      1
   217   212   217      1
   218   217   218      1
   219   217   219      1
   220   217   220      1
   221   218   221      1
   222   218   222      1
   223   218   223      1
   224   223   224      1
   225   223   225      1
   226   223   226      1
   227   224   227      1
   228   224   228      1
   229   224   229      1
   230   229   230      1
   231   229   231      1
   232   229   232      1
   233   230   233      1
   234   230   234      1
   235   230   235      1
   236   235   236      1
   237   235   237      1
   238   235   238      1
   239   236   239      1
   240   236   240      1
   241   236   241      1
   242   241   242      1
   243   241   243      1
   244   241   244      1
   245   242   245      1
   246   242   246      1
   247   242   247      1
   248   247   248      1
   249   247   249      1
   250   247   250      1
   251   248   251      1
   252   248   252      1
   253   248   253      1
   254   253   254      1
   255   253   255      1
   256   253   256      1
   257   254   257      1
   258   254   258      1
   259   254   259      1
   260   259   260      1
   261   259   261      1
   262   259   262      1
   263   260   263      1
   264   260   264      1
   265   260   265      1
   266   265   266      1
   267   265   267      1
   268   265   268      1
   269   266   269      1
   270   266   270      1
   271   266   271      1
   272   271   272      1
   273   271   273      1
   274   271   274      1
   275   272   275      1
   276   272   276      1
   277   272   277      1
   278   277   278      1
   279   277   279      1
   280   277   280      1
   281   278   281      1
   282   278   282      1
   283   278   283      1
   284   283   284      1
   285   283   285      1
   286   283   286      1
   287   284   287      1
   288   284   288      1
   289   284   289      1
   290   289   290      1
   291   289   291      1
   292   289   292      1
   293   290   293      1
   294   290   294      1
   295   290   295      1
   296   295   296      1
   297   295   297      1
   298   295   298      1
   299   296   299      1
   300   296   300      1
   301   296   301      H
