###
### Created by PolyChef-cpp17 on Thu Feb 27 19:40:30 2025
###

@<TRIPOS>MOLECULE
NO_INFO
152 151 1 0 0
SMALL
USER_CHARGES


@<TRIPOS>ATOM
      1 C          49.2798   18.5487  -39.3449 C.3       0        0    0.0000
      2 C          47.8706   18.3882  -38.7641 C.3       0        0    0.0000
      3 H          49.9271   17.7366  -38.9913 H         0        0    0.0000
      4 H          49.7280   19.4855  -38.9913 H         0        0    0.0000
      5 H          47.3721   19.3640  -38.7114 H         0        0    0.0000
      6 H          47.2612   17.7584  -39.4240 H         0        0    0.0000
      7 C          47.8873   17.7513  -37.3318 C.3       1        0    0.0000
      8 C          49.1652   18.0947  -36.5583 C.3       1        0    0.0000
      9 H          47.0072   18.1018  -36.7786 H         1        0    0.0000
     10 H          47.7865   16.6631  -37.4274 H         1        0    0.0000
     11 H          50.0454   17.9185  -37.1890 H         1        0    0.0000
     12 H          49.1724   19.1604  -36.2979 H         1        0    0.0000
     13 C          49.3086   17.2524  -35.2440 C.3       2        0    0.0000
     14 C          50.2058   17.9396  -34.2087 C.3       2        0    0.0000
     15 H          48.3101   17.0821  -34.8225 H         2        0    0.0000
     16 H          49.7155   16.2660  -35.4987 H         2        0    0.0000
     17 H          51.2604   17.8190  -34.4857 H         2        0    0.0000
     18 H          50.0053   19.0181  -34.1940 H         2        0    0.0000
     19 C          49.9937   17.3666  -32.7650 C.3       3        0    0.0000
     20 C          50.6197   18.2594  -31.6880 C.3       3        0    0.0000
     21 H          48.9176   17.2558  -32.5831 H         3        0    0.0000
     22 H          50.4266   16.3597  -32.7172 H         3        0    0.0000
     23 H          51.7090   18.2931  -31.8136 H         3        0    0.0000
     24 H          50.2580   19.2895  -31.7964 H         3        0    0.0000
     25 C          50.2935   17.7593  -30.2385 C.3       4        0    0.0000
     26 C          50.9022   18.6638  -29.1613 C.3       4        0    0.0000
     27 H          49.2041   17.7113  -30.1178 H         4        0    0.0000
     28 H          50.6685   16.7346  -30.1252 H         4        0    0.0000
     29 H          51.9921   18.7074  -29.2786 H         4        0    0.0000
     30 H          50.5315   19.6897  -29.2779 H         4        0    0.0000
     31 C          50.5695   18.1681  -27.7118 C.3       5        0    0.0000
     32 C          51.1777   19.0729  -26.6345 C.3       5        0    0.0000
     33 H          49.4796   18.1240  -27.5946 H         5        0    0.0000
     34 H          50.9406   17.1423  -27.5949 H         5        0    0.0000
     35 H          52.2675   19.1177  -26.7522 H         5        0    0.0000
     36 H          50.8059   20.0985  -26.7509 H         5        0    0.0000
     37 C          50.8460   18.5766  -25.1850 C.3       6        0    0.0000
     38 C          51.4365   19.4930  -24.1078 C.3       6        0    0.0000
     39 H          49.7563   18.5172  -25.0723 H         6        0    0.0000
     40 H          51.2313   17.5566  -25.0637 H         6        0    0.0000
     41 H          52.5264   19.5508  -24.2193 H         6        0    0.0000
     42 H          51.0528   20.5135  -24.2304 H         6        0    0.0000
     43 C          51.1024   18.9983  -22.6584 C.3       7        0    0.0000
     44 C          52.1832   19.3934  -21.6461 C.3       7        0    0.0000
     45 H          50.1338   19.4158  -22.3567 H         7        0    0.0000
     46 H          50.9837   17.9078  -22.6755 H         7        0    0.0000
     47 H          53.1694   19.0733  -22.0046 H         7        0    0.0000
     48 H          52.2236   20.4851  -21.5458 H         7        0    0.0000
     49 C          51.9312   18.7651  -20.2322 C.3       8        0    0.0000
     50 C          51.9372   19.8186  -19.1190 C.3       8        0    0.0000
     51 H          50.9692   18.2378  -20.2459 H         8        0    0.0000
     52 H          52.7021   18.0090  -20.0387 H         8        0    0.0000
     53 H          52.9691   20.0629  -18.8379 H         8        0    0.0000
     54 H          51.4800   20.7487  -19.4788 H         8        0    0.0000
     55 C          51.1660   19.3377  -17.8417 C.3       9        0    0.0000
     56 C          52.0374   19.3924  -16.5821 C.3       9        0    0.0000
     57 H          50.2748   19.9637  -17.7101 H         9        0    0.0000
     58 H          50.8097   18.3135  -18.0085 H         9        0    0.0000
     59 H          53.0488   19.0329  -16.8084 H         9        0    0.0000
     60 H          52.1408   20.4300  -16.2410 H         9        0    0.0000
     61 C          51.4455   18.5327  -15.4124 C.3      10        0    0.0000
     62 C          51.7559   19.1320  -14.0364 C.3      10        0    0.0000
     63 H          50.3604   18.4481  -15.5498 H        10        0    0.0000
     64 H          51.8519   17.5159  -15.4803 H        10        0    0.0000
     65 H          52.8332   19.0770  -13.8365 H        10        0    0.0000
     66 H          51.4862   20.1952  -14.0196 H        10        0    0.0000
     67 C          50.9899   18.3981  -12.8822 C.3      11        0    0.0000
     68 C          51.4475   18.8615  -11.4949 C.3      11        0    0.0000
     69 H          49.9141   18.5765  -13.0025 H        11        0    0.0000
     70 H          51.1436   17.3170  -12.9874 H        11        0    0.0000
     71 H          52.5305   18.7213  -11.3897 H        11        0    0.0000
     72 H          51.2556   19.9349  -11.3746 H        11        0    0.0000
     73 C          50.7233   18.0863  -10.3407 C.3      12        0    0.0000
     74 C          51.1691   18.5609   -8.9533 C.3      12        0    0.0000
     75 H          49.6398   18.2167  -10.4527 H        12        0    0.0000
     76 H          50.9250   17.0139  -10.4542 H        12        0    0.0000
     77 H          52.2521   18.4272   -8.8400 H        12        0    0.0000
     78 H          50.9708   19.6340   -8.8411 H        12        0    0.0000
     79 C          50.4412   17.7891   -7.7991 C.3      13        0    0.0000
     80 C          50.8887   18.2621   -6.4117 C.3      13        0    0.0000
     81 H          49.3583   17.9242   -7.9115 H        13        0    0.0000
     82 H          50.6382   16.7158   -7.9123 H        13        0    0.0000
     83 H          51.9716   18.1268   -6.2992 H        13        0    0.0000
     84 H          50.6920   19.3355   -6.2986 H        13        0    0.0000
     85 C          50.1605   17.4907   -5.2575 C.3      14        0    0.0000
     86 C          50.6083   17.9634   -3.8701 C.3      14        0    0.0000
     87 H          49.0777   17.6263   -5.3698 H        14        0    0.0000
     88 H          50.3570   16.4173   -5.3708 H        14        0    0.0000
     89 H          51.6926   17.8367   -3.7613 H        14        0    0.0000
     90 H          50.4030   19.0347   -3.7533 H        14        0    0.0000
     91 C          49.8902   17.1825   -2.7160 C.3      15        0    0.0000
     92 C          50.3288   17.6637   -1.3285 C.3      15        0    0.0000
     93 H          48.8056   17.3017   -2.8299 H        15        0    0.0000
     94 H          50.1029   16.1121   -2.8275 H        15        0    0.0000
     95 H          51.4117   17.5336   -1.2102 H        15        0    0.0000
     96 H          50.1269   18.7366   -1.2212 H        15        0    0.0000
     97 C          49.5984   16.8942   -0.1744 C.3      16        0    0.0000
     98 C          49.6214   17.6705    1.1468 C.3      16        0    0.0000
     99 H          48.5623   16.7006   -0.4789 H        16        0    0.0000
    100 H          50.0765   15.9155   -0.0441 H        16        0    0.0000
    101 H          49.6231   16.9726    1.9933 H        16        0    0.0000
    102 H          50.5446   18.2585    1.2216 H        16        0    0.0000
    103 C          48.3946   18.6358    1.2903 C.3      17        0    0.0000
    104 C          48.3121   19.2671    2.6844 C.3      17        0    0.0000
    105 H          48.4700   19.4194    0.5263 H        17        0    0.0000
    106 H          47.4764   18.0747    1.0765 H        17        0    0.0000
    107 H          49.2902   19.2168    3.1786 H        17        0    0.0000
    108 H          48.0555   20.3305    2.6012 H        17        0    0.0000
    109 C          47.2492   18.5606    3.5946 C.3      18        0    0.0000
    110 C          47.0179   19.3135    4.9094 C.3      18        0    0.0000
    111 H          46.3072   18.4767    3.0385 H        18        0    0.0000
    112 H          47.5852   17.5370    3.8014 H        18        0    0.0000
    113 H          47.8277   19.0938    5.6162 H        18        0    0.0000
    114 H          47.0398   20.3959    4.7319 H        18        0    0.0000
    115 C          45.6496   18.9384    5.5761 C.3      19        0    0.0000
    116 C          45.7165   18.9872    7.1065 C.3      19        0    0.0000
    117 H          44.8778   19.6274    5.2112 H        19        0    0.0000
    118 H          45.3580   17.9343    5.2441 H        19        0    0.0000
    119 H          46.6161   18.4684    7.4605 H        19        0    0.0000
    120 H          45.7982   20.0270    7.4466 H        19        0    0.0000
    121 C          44.4594   18.3335    7.7773 C.3      20        0    0.0000
    122 C          43.7218   19.3080    8.7021 C.3      20        0    0.0000
    123 H          43.7835   17.9775    6.9899 H        20        0    0.0000
    124 H          44.7795   17.4488    8.3415 H        20        0    0.0000
    125 H          44.0365   19.1516    9.7413 H        20        0    0.0000
    126 H          43.9845   20.3419    8.4456 H        20        0    0.0000
    127 C          42.1650   19.1460    8.6158 C.3      21        0    0.0000
    128 C          41.4629   20.4613    8.2607 C.3      21        0    0.0000
    129 H          41.9302   18.3800    7.8663 H        21        0    0.0000
    130 H          41.7948   18.7697    9.5775 H        21        0    0.0000
    131 H          40.5627   20.5851    8.8753 H        21        0    0.0000
    132 H          42.1187   21.3110    8.4877 H        21        0    0.0000
    133 C          41.0552   20.5277    6.7484 C.3      22        0    0.0000
    134 C          39.5586   20.8003    6.5617 C.3      22        0    0.0000
    135 H          41.6446   21.3120    6.2574 H        22        0    0.0000
    136 H          41.3280   19.5805    6.2668 H        22        0    0.0000
    137 H          39.1409   21.2459    7.4730 H        22        0    0.0000
    138 H          39.4067   21.5295    5.7563 H        22        0    0.0000
    139 C          38.7553   19.4977    6.2222 C.3      23        0    0.0000
    140 C          37.9384   19.6385    4.9330 C.3      23        0    0.0000
    141 H          39.4595   18.6614    6.1318 H        23        0    0.0000
    142 H          38.0922   19.2617    7.0637 H        23        0    0.0000
    143 H          36.9430   19.1975    5.0683 H        23        0    0.0000
    144 H          37.7838   20.6993    4.6996 H        23        0    0.0000
    145 C          38.6349   18.9483    3.7099 C.3      24        0    0.0000
    146 C          37.7496   17.8750    3.0670 C.3      24        0    0.0000
    147 H          38.8924   19.7163    2.9700 H        24        0    0.0000
    148 H          39.5804   18.5046    4.0456 H        24        0    0.0000
    149 H          37.4921   17.1071    3.8070 H        24        0    0.0000
    150 H          36.8041   18.3187    2.7314 H        24        0    0.0000
    151 H          38.2339   17.3951    2.2166 H        24        0    0.0000
    152 H          49.2798   18.5487  -40.4349 H         0        0    0.0000
@<TRIPOS>BOND
     1     1     2      1
     2     1     3      1
     3     1     4      1
     4     1   152      H
     5     2     5      1
     6     2     6      1
     7     2     7      1
     8     7     8      1
     9     7     9      1
    10     7    10      1
    11     8    11      1
    12     8    12      1
    13     8    13      1
    14    13    14      1
    15    13    15      1
    16    13    16      1
    17    14    17      1
    18    14    18      1
    19    14    19      1
    20    19    20      1
    21    19    21      1
    22    19    22      1
    23    20    23      1
    24    20    24      1
    25    20    25      1
    26    25    26      1
    27    25    27      1
    28    25    28      1
    29    26    29      1
    30    26    30      1
    31    26    31      1
    32    31    32      1
    33    31    33      1
    34    31    34      1
    35    32    35      1
    36    32    36      1
    37    32    37      1
    38    37    38      1
    39    37    39      1
    40    37    40      1
    41    38    41      1
    42    38    42      1
    43    38    43      1
    44    43    44      1
    45    43    45      1
    46    43    46      1
    47    44    47      1
    48    44    48      1
    49    44    49      1
    50    49    50      1
    51    49    51      1
    52    49    52      1
    53    50    53      1
    54    50    54      1
    55    50    55      1
    56    55    56      1
    57    55    57      1
    58    55    58      1
    59    56    59      1
    60    56    60      1
    61    56    61      1
    62    61    62      1
    63    61    63      1
    64    61    64      1
    65    62    65      1
    66    62    66      1
    67    62    67      1
    68    67    68      1
    69    67    69      1
    70    67    70      1
    71    68    71      1
    72    68    72      1
    73    68    73      1
    74    73    74      1
    75    73    75      1
    76    73    76      1
    77    74    77      1
    78    74    78      1
    79    74    79      1
    80    79    80      1
    81    79    81      1
    82    79    82      1
    83    80    83      1
    84    80    84      1
    85    80    85      1
    86    85    86      1
    87    85    87      1
    88    85    88      1
    89    86    89      1
    90    86    90      1
    91    86    91      1
    92    91    92      1
    93    91    93      1
    94    91    94      1
    95    92    95      1
    96    92    96      1
    97    92    97      1
    98    97    98      1
    99    97    99      1
   100    97   100      1
   101    98   101      1
   102    98   102      1
   103    98   103      1
   104   103   104      1
   105   103   105      1
   106   103   106      1
   107   104   107      1
   108   104   108      1
   109   104   109      1
   110   109   110      1
   111   109   111      1
   112   109   112      1
   113   110   113      1
   114   110   114      1
   115   110   115      1
   116   115   116      1
   117   115   117      1
   118   115   118      1
   119   116   119      1
   120   116   120      1
   121   116   121      1
   122   121   122      1
   123   121   123      1
   124   121   124      1
   125   122   125      1
   126   122   126      1
   127   122   127      1
   128   127   128      1
   129   127   129      1
   130   127   130      1
   131   128   131      1
   132   128   132      1
   133   128   133      1
   134   133   134      1
   135   133   135      1
   136   133   136      1
   137   134   137      1
   138   134   138      1
   139   134   139      1
   140   139   140      1
   141   139   141      1
   142   139   142      1
   143   140   143      1
   144   140   144      1
   145   140   145      1
   146   145   146      1
   147   145   147      1
   148   145   148      1
   149   146   149      1
   150   146   150      1
   151   146   151      H
