###
### Created by PolyChef-cpp17 on Thu Feb 27 19:40:28 2025
###

@<TRIPOS>MOLECULE
NO_INFO
470 469 1 0 0
SMALL
USER_CHARGES


@<TRIPOS>ATOM
      1 C         149.2798   87.8287  -39.3449 C.3       0        0    0.0000
      2 C         147.8706   87.6682  -38.7641 C.3       0        0    0.0000
      3 H         149.9271   87.0166  -38.9913 H         0        0    0.0000
      4 H         149.7280   88.7655  -38.9913 H         0        0    0.0000
      5 H         147.3718   88.6439  -38.7120 H         0        0    0.0000
      6 H         147.2614   87.0378  -39.4237 H         0        0    0.0000
      7 C         147.8874   87.0322  -37.3314 C.3       1        0    0.0000
      8 C         149.1656   87.3756  -36.5584 C.3       1        0    0.0000
      9 H         147.0075   87.3835  -36.7782 H         1        0    0.0000
     10 H         147.7861   85.9440  -37.4263 H         1        0    0.0000
     11 H         150.0457   87.1970  -37.1886 H         1        0    0.0000
     12 H         149.1741   88.4418  -36.3003 H         1        0    0.0000
     13 C         149.3077   86.5359  -35.2423 C.3       2        0    0.0000
     14 C         150.2096   87.2218  -34.2103 C.3       2        0    0.0000
     15 H         148.3093   86.3708  -34.8187 H         2        0    0.0000
     16 H         149.7100   85.5471  -35.4954 H         2        0    0.0000
     17 H         151.2632   87.0964  -34.4890 H         2        0    0.0000
     18 H         150.0134   88.3010  -34.1974 H         2        0    0.0000
     19 C         149.9982   86.6526  -32.7650 C.3       3        0    0.0000
     20 C         150.6256   87.5477  -31.6907 C.3       3        0    0.0000
     21 H         148.9221   86.5432  -32.5820 H         3        0    0.0000
     22 H         150.4303   85.6455  -32.7149 H         3        0    0.0000
     23 H         151.7147   87.5817  -31.8184 H         3        0    0.0000
     24 H         150.2633   88.5773  -31.8003 H         3        0    0.0000
     25 C         150.3024   87.0500  -30.2397 C.3       4        0    0.0000
     26 C         150.9076   87.9601  -29.1652 C.3       4        0    0.0000
     27 H         149.2133   86.9974  -30.1183 H         4        0    0.0000
     28 H         150.6820   86.0273  -30.1238 H         4        0    0.0000
     29 H         151.9973   88.0071  -29.2822 H         4        0    0.0000
     30 H         150.5334   88.9843  -29.2854 H         4        0    0.0000
     31 C         150.5759   87.4680  -27.7142 C.3       5        0    0.0000
     32 C         151.1977   88.3669  -26.6397 C.3       5        0    0.0000
     33 H         149.4862   87.4349  -27.5925 H         5        0    0.0000
     34 H         150.9373   86.4386  -27.5987 H         5        0    0.0000
     35 H         152.2873   88.4015  -26.7625 H         5        0    0.0000
     36 H         150.8350   89.3959  -26.7541 H         5        0    0.0000
     37 C         150.8682   87.8734  -25.1887 C.3       6        0    0.0000
     38 C         151.4494   88.7991  -24.1143 C.3       6        0    0.0000
     39 H         149.7789   87.8052  -25.0773 H         6        0    0.0000
     40 H         151.2620   86.8572  -25.0629 H         6        0    0.0000
     41 H         152.5393   88.8627  -24.2222 H         6        0    0.0000
     42 H         151.0602   89.8165  -24.2438 H         6        0    0.0000
     43 C         151.1129   88.3101  -22.6635 C.3       7        0    0.0000
     44 C         152.2437   88.6088  -21.6729 C.3       7        0    0.0000
     45 H         150.1857   88.7946  -22.3332 H         7        0    0.0000
     46 H         150.9124   87.2319  -22.6913 H         7        0    0.0000
     47 H         153.1989   88.2455  -22.0717 H         7        0    0.0000
     48 H         152.3500   89.6925  -21.5391 H         7        0    0.0000
     49 C         151.9968   87.9485  -20.2727 C.3       8        0    0.0000
     50 C         152.0662   88.9673  -19.1298 C.3       8        0    0.0000
     51 H         151.0153   87.4586  -20.2809 H         8        0    0.0000
     52 H         152.7420   87.1584  -20.1181 H         8        0    0.0000
     53 H         153.1109   89.1414  -18.8439 H         8        0    0.0000
     54 H         151.6654   89.9331  -19.4618 H         8        0    0.0000
     55 C         151.2679   88.4968  -17.8653 C.3       9        0    0.0000
     56 C         152.1192   88.5403  -16.5916 C.3       9        0    0.0000
     57 H         150.3830   89.1346  -17.7482 H         9        0    0.0000
     58 H         150.9010   87.4775  -18.0379 H         9        0    0.0000
     59 H         153.1190   88.1363  -16.7934 H         9        0    0.0000
     60 H         152.2588   89.5792  -16.2677 H         9        0    0.0000
     61 C         151.4733   87.7273  -15.4172 C.3      10        0    0.0000
     62 C         151.8354   88.3034  -14.0439 C.3      10        0    0.0000
     63 H         150.3840   87.7224  -15.5477 H        10        0    0.0000
     64 H         151.8036   86.6834  -15.4862 H        10        0    0.0000
     65 H         152.9097   88.1832  -13.8569 H        10        0    0.0000
     66 H         151.6304   89.3809  -14.0220 H        10        0    0.0000
     67 C         151.0402   87.6141  -12.8820 C.3      11        0    0.0000
     68 C         151.5288   88.0599  -11.4994 C.3      11        0    0.0000
     69 H         149.9741   87.8460  -12.9970 H        11        0    0.0000
     70 H         151.1386   86.5261  -12.9830 H        11        0    0.0000
     71 H         152.6031   87.8619  -11.3982 H        11        0    0.0000
     72 H         151.3958   89.1427  -11.3845 H        11        0    0.0000
     73 C         150.7692   87.3315  -10.3375 C.3      12        0    0.0000
     74 C         151.2487   87.7868   -8.9549 C.3      12        0    0.0000
     75 H         149.6940   87.5215  -10.4442 H        12        0    0.0000
     76 H         150.9102   86.2490  -10.4469 H        12        0    0.0000
     77 H         152.3233   87.5943   -8.8472 H        12        0    0.0000
     78 H         151.1103   88.8697   -8.8465 H        12        0    0.0000
     79 C         150.4864   87.0612   -7.7930 C.3      13        0    0.0000
     80 C         150.9634   87.5192   -6.4103 C.3      13        0    0.0000
     81 H         149.4115   87.2516   -7.9022 H        13        0    0.0000
     82 H         150.6270   85.9785   -7.8998 H        13        0    0.0000
     83 H         152.0383   87.3287   -6.3010 H        13        0    0.0000
     84 H         150.8230   88.6020   -6.3036 H        13        0    0.0000
     85 C         150.2009   86.7938   -5.2485 C.3      14        0    0.0000
     86 C         150.6765   87.2533   -3.8658 C.3      14        0    0.0000
     87 H         149.1260   86.9831   -5.3586 H        14        0    0.0000
     88 H         150.3426   85.7111   -5.3544 H        14        0    0.0000
     89 H         151.7513   87.0631   -3.7553 H        14        0    0.0000
     90 H         150.5357   88.3361   -3.7602 H        14        0    0.0000
     91 C         149.9131   86.5288   -2.7040 C.3      15        0    0.0000
     92 C         150.3815   86.9958   -1.3213 C.3      15        0    0.0000
     93 H         148.8377   86.7127   -2.8188 H        15        0    0.0000
     94 H         150.0603   85.4464   -2.8052 H        15        0    0.0000
     95 H         151.4568   86.8115   -1.2064 H        15        0    0.0000
     96 H         150.2348   88.0783   -1.2203 H        15        0    0.0000
     97 C         149.6177   86.2717   -0.1595 C.3      16        0    0.0000
     98 C         150.0765   86.7485    1.2230 C.3      16        0    0.0000
     99 H         148.5416   86.4479   -0.2801 H        16        0    0.0000
    100 H         149.7724   85.1898   -0.2549 H        16        0    0.0000
    101 H         149.2290   87.1741    1.7745 H        16        0    0.0000
    102 H         150.4407   85.8979    1.8124 H        16        0    0.0000
    103 C         151.2128   87.8247    1.1333 C.3      17        0    0.0000
    104 C         151.8274   88.1359    2.5024 C.3      17        0    0.0000
    105 H         151.9882   87.4638    0.4462 H        17        0    0.0000
    106 H         150.7996   88.7391    0.6898 H        17        0    0.0000
    107 H         151.1101   88.6916    3.1192 H        17        0    0.0000
    108 H         152.0466   87.2034    3.0371 H        17        0    0.0000
    109 C         153.1475   88.9732    2.3846 C.3      18        0    0.0000
    110 C         154.0603   88.7929    3.6025 C.3      18        0    0.0000
    111 H         153.6758   88.6737    1.4710 H        18        0    0.0000
    112 H         152.8853   90.0316    2.2644 H        18        0    0.0000
    113 H         154.6276   89.7136    3.7870 H        18        0    0.0000
    114 H         153.4574   88.6091    4.5005 H        18        0    0.0000
    115 C         155.0683   87.6064    3.4191 C.3      19        0    0.0000
    116 C         155.7203   87.1884    4.7416 C.3      19        0    0.0000
    117 H         154.5359   86.7553    2.9766 H        19        0    0.0000
    118 H         155.8389   87.9054    2.6978 H        19        0    0.0000
    119 H         156.7025   87.6662    4.8444 H        19        0    0.0000
    120 H         155.1119   87.5339    5.5867 H        19        0    0.0000
    121 C         155.9002   85.6349    4.8504 C.3      20        0    0.0000
    122 C         156.3339   85.1973    6.2537 C.3      20        0    0.0000
    123 H         154.9540   85.1496    4.5806 H        20        0    0.0000
    124 H         156.6422   85.3122    4.1096 H        20        0    0.0000
    125 H         157.4224   85.0653    6.2870 H        20        0    0.0000
    126 H         156.0887   85.9785    6.9839 H        20        0    0.0000
    127 C         155.6488   83.8586    6.6968 C.3      21        0    0.0000
    128 C         155.9503   83.5078    8.1580 C.3      21        0    0.0000
    129 H         154.5658   83.9493    6.5475 H        21        0    0.0000
    130 H         155.9912   83.0512    6.0377 H        21        0    0.0000
    131 H         156.1610   82.4352    8.2516 H        21        0    0.0000
    132 H         156.8513   84.0362    8.4936 H        21        0    0.0000
    133 C         154.7636   83.8749    9.1142 C.3      22        0    0.0000
    134 C         155.0262   83.4387   10.5598 C.3      22        0    0.0000
    135 H         154.5981   84.9586    9.0724 H        22        0    0.0000
    136 H         153.8477   83.4017    8.7389 H        22        0    0.0000
    137 H         154.8727   84.2843   11.2416 H        22        0    0.0000
    138 H         154.3094   82.6623   10.8546 H        22        0    0.0000
    139 C         156.4797   82.8864   10.7590 C.3      23        0    0.0000
    140 C         156.6787   82.2612   12.1441 C.3      23        0    0.0000
    141 H         156.6861   82.1441    9.9780 H        23        0    0.0000
    142 H         157.1930   83.7066   10.6105 H        23        0    0.0000
    143 H         156.2688   82.9223   12.9177 H        23        0    0.0000
    144 H         156.1266   81.3157   12.2129 H        23        0    0.0000
    145 C         158.1895   81.9883   12.4613 C.3      24        0    0.0000
    146 C         158.3953   81.4343   13.8754 C.3      24        0    0.0000
    147 H         158.5847   81.2830   11.7197 H        24        0    0.0000
    148 H         158.7510   82.9226   12.3378 H        24        0    0.0000
    149 H         157.9924   80.4162   13.9429 H        24        0    0.0000
    150 H         159.4669   81.3647   14.0999 H        24        0    0.0000
    151 C         157.7070   82.3234   14.9677 C.3      25        0    0.0000
    152 C         157.9837   81.8172   16.3877 C.3      25        0    0.0000
    153 H         158.0637   83.3553   14.8601 H        25        0    0.0000
    154 H         156.6265   82.3423   14.7790 H        25        0    0.0000
    155 H         157.0670   81.8632   16.9887 H        25        0    0.0000
    156 H         158.2889   80.7639   16.3587 H        25        0    0.0000
    157 C         159.1018   82.6477   17.1072 C.3      26        0    0.0000
    158 C         159.0041   82.5531   18.6338 C.3      26        0    0.0000
    159 H         160.0817   82.2879   16.7700 H        26        0    0.0000
    160 H         159.0242   83.6949   16.7894 H        26        0    0.0000
    161 H         157.9621   82.3874   18.9345 H        26        0    0.0000
    162 H         159.5771   81.6900   18.9946 H        26        0    0.0000
    163 C         159.5356   83.8454   19.3443 C.3      27        0    0.0000
    164 C         159.4087   83.7635   20.8695 C.3      27        0    0.0000
    165 H         160.5846   83.9982   19.0618 H        27        0    0.0000
    166 H         158.9781   84.7114   18.9664 H        27        0    0.0000
    167 H         158.3618   83.5965   21.1515 H        27        0    0.0000
    168 H         159.9778   82.9058   21.2489 H        27        0    0.0000
    169 C         159.9218   85.0639   21.5790 C.3      28        0    0.0000
    170 C         159.4619   85.1493   23.0385 C.3      28        0    0.0000
    171 H         161.0175   85.0857   21.5280 H        28        0    0.0000
    172 H         159.5630   85.9369   21.0198 H        28        0    0.0000
    173 H         158.3712   85.0459   23.0959 H        28        0    0.0000
    174 H         159.8878   84.3197   23.6163 H        28        0    0.0000
    175 C         159.8774   86.5015   23.7142 C.3      29        0    0.0000
    176 C         160.6083   86.2858   25.0440 C.3      29        0    0.0000
    177 H         160.5163   87.0618   23.0204 H        29        0    0.0000
    178 H         158.9775   87.1083   23.8737 H        29        0    0.0000
    179 H         159.9036   86.3775   25.8797 H        29        0    0.0000
    180 H         161.0179   85.2690   25.0874 H        29        0    0.0000
    181 C         161.7762   87.3104   25.2530 C.3      30        0    0.0000
    182 C         163.0865   86.6237   25.6536 C.3      30        0    0.0000
    183 H         161.9177   87.8792   24.3257 H        30        0    0.0000
    184 H         161.4792   88.0327   26.0235 H        30        0    0.0000
    185 H         163.2101   86.6555   26.7432 H        30        0    0.0000
    186 H         163.0579   85.5642   25.3706 H        30        0    0.0000
    187 C         164.3364   87.2921   24.9838 C.3      31        0    0.0000
    188 C         165.2300   86.2702   24.2723 C.3      31        0    0.0000
    189 H         163.9918   88.0513   24.2708 H        31        0    0.0000
    190 H         164.9101   87.8212   25.7547 H        31        0    0.0000
    191 H         166.0220   85.9271   24.9494 H        31        0    0.0000
    192 H         164.6440   85.3841   23.9985 H        31        0    0.0000
    193 C         165.8912   86.8583   22.9783 C.3      32        0    0.0000
    194 C         167.2596   86.2315   22.6888 C.3      32        0    0.0000
    195 H         165.2153   86.6942   22.1299 H        32        0    0.0000
    196 H         165.9921   87.9445   23.0951 H        32        0    0.0000
    197 H         167.8710   86.2261   23.5997 H        32        0    0.0000
    198 H         167.1371   85.1844   22.3854 H        32        0    0.0000
    199 C         168.0371   86.9962   21.5628 C.3      33        0    0.0000
    200 C         169.5502   86.7652   21.6422 C.3      33        0    0.0000
    201 H         167.6575   86.6698   20.5867 H        33        0    0.0000
    202 H         167.8153   88.0675   21.6449 H        33        0    0.0000
    203 H         169.9107   86.9788   22.6561 H        33        0    0.0000
    204 H         169.7810   85.7117   21.4411 H        33        0    0.0000
    205 C         170.3417   87.6587   20.6259 C.3      34        0    0.0000
    206 C         171.6555   88.1840   21.2150 C.3      34        0    0.0000
    207 H         170.5432   87.0717   19.7213 H        34        0    0.0000
    208 H         169.7039   88.4978   20.3214 H        34        0    0.0000
    209 H         171.4828   88.5849   22.2215 H        34        0    0.0000
    210 H         172.3747   87.3625   21.3222 H        34        0    0.0000
    211 C         172.2980   89.3054   20.3278 C.3      35        0    0.0000
    212 C         172.8389   90.4698   21.1649 C.3      35        0    0.0000
    213 H         173.1057   88.8645   19.7306 H        35        0    0.0000
    214 H         171.5448   89.6701   19.6185 H        35        0    0.0000
    215 H         172.1316   90.7174   21.9662 H        35        0    0.0000
    216 H         173.7776   90.1786   21.6522 H        35        0    0.0000
    217 C         173.0945   91.7534   20.3021 C.3      36        0    0.0000
    218 C         173.4796   92.9632   21.1606 C.3      36        0    0.0000
    219 H         173.8886   91.5391   19.5762 H        36        0    0.0000
    220 H         172.1898   91.9760   19.7228 H        36        0    0.0000
    221 H         172.7151   93.1389   21.9276 H        36        0    0.0000
    222 H         174.4186   92.7639   21.6917 H        36        0    0.0000
    223 C         173.6485   94.2675   20.3076 C.3      37        0    0.0000
    224 C         173.4180   95.5367   21.1351 C.3      37        0    0.0000
    225 H         174.6564   94.2787   19.8745 H        37        0    0.0000
    226 H         172.9447   94.2337   19.4667 H        37        0    0.0000
    227 H         172.4718   95.4605   21.6851 H        37        0    0.0000
    228 H         174.2108   95.6456   21.8856 H        37        0    0.0000
    229 C         173.3831   96.8274   20.2461 C.3      38        0    0.0000
    230 C         172.2367   97.7683   20.6328 C.3      38        0    0.0000
    231 H         174.3445   97.3475   20.3399 H        38        0    0.0000
    232 H         173.2872   96.5300   19.1945 H        38        0    0.0000
    233 H         171.3637   97.1859   20.9524 H        38        0    0.0000
    234 H         172.5316   98.3889   21.4880 H        38        0    0.0000
    235 C         171.8131   98.7060   19.4501 C.3      39        0    0.0000
    236 C         172.1097  100.1808   19.7433 C.3      39        0    0.0000
    237 H         172.3404   98.3896   18.5416 H        39        0    0.0000
    238 H         170.7420   98.5690   19.2565 H        39        0    0.0000
    239 H         171.2684  100.6338   20.2823 H        39        0    0.0000
    240 H         172.9857  100.2653   20.3984 H        39        0    0.0000
    241 C         172.3749  101.0047   18.4363 C.3      40        0    0.0000
    242 C         171.1499  101.8179   18.0036 C.3      40        0    0.0000
    243 H         173.2287  101.6723   18.6062 H        40        0    0.0000
    244 H         172.6694  100.3139   17.6365 H        40        0    0.0000
    245 H         170.2425  101.4022   18.4590 H        40        0    0.0000
    246 H         171.2380  102.8507   18.3630 H        40        0    0.0000
    247 C         170.9701  101.8383   16.4465 C.3      41        0    0.0000
    248 C         170.1924  103.0691   15.9677 C.3      41        0    0.0000
    249 H         171.9607  101.8127   15.9758 H        41        0    0.0000
    250 H         170.4512  100.9221   16.1384 H        41        0    0.0000
    251 H         169.1335  102.9737   16.2381 H        41        0    0.0000
    252 H         170.5661  103.9695   16.4709 H        41        0    0.0000
    253 C         170.3013  103.2747   14.4174 C.3      42        0    0.0000
    254 C         169.7850  104.6486   13.9759 C.3      42        0    0.0000
    255 H         171.3494  103.1525   14.1173 H        42        0    0.0000
    256 H         169.7351  102.4808   13.9148 H        42        0    0.0000
    257 H         168.7064  104.7227   14.1620 H        42        0    0.0000
    258 H         170.2621  105.4382   14.5696 H        42        0    0.0000
    259 C         170.0560  104.9250   12.4568 C.3      43        0    0.0000
    260 C         170.6008  106.3364   12.2114 C.3      43        0    0.0000
    261 H         170.7661  104.1773   12.0825 H        43        0    0.0000
    262 H         169.1225  104.7799   11.8990 H        43        0    0.0000
    263 H         169.7748  107.0575   12.1759 H        43        0    0.0000
    264 H         171.2481  106.6397   13.0435 H        43        0    0.0000
    265 C         171.4153  106.4349   10.8756 C.3      44        0    0.0000
    266 C         171.9396  107.8519   10.6181 C.3      44        0    0.0000
    267 H         172.2517  105.7263   10.9184 H        44        0    0.0000
    268 H         170.7733  106.1147   10.0456 H        44        0    0.0000
    269 H         171.2026  108.5923   10.9530 H        44        0    0.0000
    270 H         172.8510  108.0278   11.2029 H        44        0    0.0000
    271 C         172.2552  108.1024    9.1032 C.3      45        0    0.0000
    272 C         172.7956  109.5137    8.8481 C.3      45        0    0.0000
    273 H         172.9828  107.3542    8.7651 H        45        0    0.0000
    274 H         171.3407  107.9386    8.5197 H        45        0    0.0000
    275 H         173.7957  109.4584    8.4005 H        45        0    0.0000
    276 H         172.1560  110.0367    8.1264 H        45        0    0.0000
    277 C         172.8764  110.3654   10.1617 C.3      46        0    0.0000
    278 C         173.4648  111.7590    9.9152 C.3      46        0    0.0000
    279 H         171.8698  110.4522   10.5893 H        46        0    0.0000
    280 H         173.4853  109.8246   10.8968 H        46        0    0.0000
    281 H         173.3135  112.3927   10.7979 H        46        0    0.0000
    282 H         174.5485  111.6878    9.7605 H        46        0    0.0000
    283 C         172.8220  112.4637    8.6712 C.3      47        0    0.0000
    284 C         173.6416  113.6696    8.1989 C.3      47        0    0.0000
    285 H         172.7279  111.7317    7.8595 H        47        0    0.0000
    286 H         171.8038  112.7792    8.9304 H        47        0    0.0000
    287 H         174.2523  113.3926    7.3307 H        47        0    0.0000
    288 H         172.9720  114.4738    7.8694 H        47        0    0.0000
    289 C         174.5833  114.2248    9.3226 C.3      48        0    0.0000
    290 C         175.4206  115.4155    8.8429 C.3      48        0    0.0000
    291 H         173.9708  114.5183   10.1841 H        48        0    0.0000
    292 H         175.2408  113.4159    9.6644 H        48        0    0.0000
    293 H         175.9218  115.8906    9.6953 H        48        0    0.0000
    294 H         176.2111  115.0707    8.1649 H        48        0    0.0000
    295 C         174.5537  116.4916    8.1026 C.3      49        0    0.0000
    296 C         175.4142  117.5381    7.3861 C.3      49        0    0.0000
    297 H         173.9003  115.9845    7.3819 H        49        0    0.0000
    298 H         173.8974  116.9806    8.8331 H        49        0    0.0000
    299 H         176.1452  117.0424    6.7354 H        49        0    0.0000
    300 H         174.7863  118.1611    6.7372 H        49        0    0.0000
    301 C         176.1799  118.4665    8.3908 C.3      50        0    0.0000
    302 C         177.0142  119.5342    7.6746 C.3      50        0    0.0000
    303 H         175.4508  118.9435    9.0574 H        50        0    0.0000
    304 H         176.8264  117.8458    9.0235 H        50        0    0.0000
    305 H         176.3577  120.3096    7.2607 H        50        0    0.0000
    306 H         177.6798  120.0336    8.3895 H        50        0    0.0000
    307 C         177.8795  118.9324    6.5140 C.3      51        0    0.0000
    308 C         178.6605  120.0096    5.7533 C.3      51        0    0.0000
    309 H         178.5716  118.1931    6.9358 H        51        0    0.0000
    310 H         177.2197  118.3896    5.8259 H        51        0    0.0000
    311 H         178.6143  119.8163    4.6744 H        51        0    0.0000
    312 H         178.2023  120.9928    5.9171 H        51        0    0.0000
    313 C         180.1644  120.0737    6.1912 C.3      52        0    0.0000
    314 C         181.0253  120.8626    5.1985 C.3      52        0    0.0000
    315 H         180.2236  120.5309    7.1867 H        52        0    0.0000
    316 H         180.5475  119.0506    6.2912 H        52        0    0.0000
    317 H         180.7828  120.5648    4.1708 H        52        0    0.0000
    318 H         180.8033  121.9341    5.2767 H        52        0    0.0000
    319 C         182.5591  120.6455    5.4388 C.3      53        0    0.0000
    320 C         183.4205  121.5052    4.5072 C.3      53        0    0.0000
    321 H         182.7894  120.8786    6.4858 H        53        0    0.0000
    322 H         182.7930  119.5835    5.2938 H        53        0    0.0000
    323 H         184.2634  120.9165    4.1244 H        53        0    0.0000
    324 H         182.8335  121.8188    3.6351 H        53        0    0.0000
    325 C         183.9801  122.7815    5.2251 C.3      54        0    0.0000
    326 C         184.8993  123.6038    4.3151 C.3      54        0    0.0000
    327 H         183.1363  123.3964    5.5619 H        54        0    0.0000
    328 H         184.5231  122.4708    6.1263 H        54        0    0.0000
    329 H         184.3159  124.0636    3.5078 H        54        0    0.0000
    330 H         185.3537  124.4253    4.8828 H        54        0    0.0000
    331 C         186.0405  122.7351    3.6822 C.3      55        0    0.0000
    332 C         186.9606  123.5577    2.7735 C.3      55        0    0.0000
    333 H         186.6231  122.2743    4.4895 H        55        0    0.0000
    334 H         185.5861  121.9144    3.1135 H        55        0    0.0000
    335 H         186.3636  124.1313    2.0537 H        55        0    0.0000
    336 H         187.5227  124.2877    3.3691 H        55        0    0.0000
    337 C         187.9756  122.6594    1.9860 C.3      56        0    0.0000
    338 C         188.7547  123.4516    0.9303 C.3      56        0    0.0000
    339 H         188.6703  122.2008    2.7005 H        56        0    0.0000
    340 H         187.4256  121.8382    1.5099 H        56        0    0.0000
    341 H         188.0643  124.0532    0.3261 H        56        0    0.0000
    342 H         189.4410  124.1547    1.4182 H        56        0    0.0000
    343 C         189.5796  122.5196   -0.0229 C.3      57        0    0.0000
    344 C         189.4743  122.9500   -1.4901 C.3      57        0    0.0000
    345 H         190.6290  122.5266    0.2969 H        57        0    0.0000
    346 H         189.2217  121.4891    0.0935 H        57        0    0.0000
    347 H         188.4516  123.2782   -1.7134 H        57        0    0.0000
    348 H         190.1292  123.8099   -1.6778 H        57        0    0.0000
    349 C         189.8613  121.7952   -2.4771 C.3      58        0    0.0000
    350 C         189.7054  122.2088   -3.9447 C.3      58        0    0.0000
    351 H         190.8974  121.4934   -2.2794 H        58        0    0.0000
    352 H         189.2326  120.9219   -2.2636 H        58        0    0.0000
    353 H         188.6734  122.5265   -4.1384 H        58        0    0.0000
    354 H         190.3468  123.0719   -4.1624 H        58        0    0.0000
    355 C         190.0701  121.0466   -4.9315 C.3      59        0    0.0000
    356 C         189.9274  121.4645   -6.3991 C.3      59        0    0.0000
    357 H         191.0987  120.7222   -4.7310 H        59        0    0.0000
    358 H         189.4219  120.1871   -4.7204 H        59        0    0.0000
    359 H         188.8943  121.7716   -6.6041 H        59        0    0.0000
    360 H         190.5618  122.3354   -6.6057 H        59        0    0.0000
    361 C         190.3167  120.3104   -7.3860 C.3      60        0    0.0000
    362 C         190.1736  120.7282   -8.8537 C.3      60        0    0.0000
    363 H         191.3498  120.0035   -7.1812 H        60        0    0.0000
    364 H         189.6824  119.4394   -7.1793 H        60        0    0.0000
    365 H         189.1335  121.0046   -9.0664 H        60        0    0.0000
    366 H         190.7831  121.6184   -9.0525 H        60        0    0.0000
    367 C         190.6057  119.5892   -9.8404 C.3      61        0    0.0000
    368 C         190.4596  120.0059  -11.3081 C.3      61        0    0.0000
    369 H         191.6465  119.3144   -9.6292 H        61        0    0.0000
    370 H         189.9977  118.6983   -9.6400 H        61        0    0.0000
    371 H         191.4289  119.9362  -11.8171 H        61        0    0.0000
    372 H         189.7805  119.3192  -11.8283 H        61        0    0.0000
    373 C         189.9135  121.4676  -11.4591 C.3      62        0    0.0000
    374 C         189.7605  121.8817  -12.9268 C.3      62        0    0.0000
    375 H         188.9467  121.5387  -10.9455 H        62        0    0.0000
    376 H         190.5955  122.1549  -10.9435 H        62        0    0.0000
    377 H         188.9073  121.3601  -13.3779 H        62        0    0.0000
    378 H         189.5449  122.9553  -12.9943 H        62        0    0.0000
    379 C         191.0456  121.5706  -13.7690 C.3      63        0    0.0000
    380 C         190.7680  121.5773  -15.2763 C.3      63        0    0.0000
    381 H         191.8163  122.3123  -13.5251 H        63        0    0.0000
    382 H         191.4406  120.5938  -13.4636 H        63        0    0.0000
    383 H         190.4299  122.5721  -15.5921 H        63        0    0.0000
    384 H         191.6917  121.3681  -15.8298 H        63        0    0.0000
    385 C         189.6836  120.5217  -15.6854 C.3      64        0    0.0000
    386 C         189.4106  120.5240  -17.1935 C.3      64        0    0.0000
    387 H         190.0195  119.5276  -15.3654 H        64        0    0.0000
    388 H         188.7584  120.7338  -15.1353 H        64        0    0.0000
    389 H         188.7738  119.6720  -17.4619 H        64        0    0.0000
    390 H         188.8596  121.4300  -17.4747 H        64        0    0.0000
    391 C         190.7306  120.4536  -18.0363 C.3      65        0    0.0000
    392 C         190.4917  120.7683  -19.5171 C.3      65        0    0.0000
    393 H         191.4576  121.1586  -17.6144 H        65        0    0.0000
    394 H         191.1649  119.4518  -17.9300 H        65        0    0.0000
    395 H         190.8181  121.7914  -19.7417 H        65        0    0.0000
    396 H         191.0940  120.1005  -20.1456 H        65        0    0.0000
    397 C         188.9843  120.6188  -19.9207 C.3      66        0    0.0000
    398 C         188.7489  120.9122  -21.4064 C.3      66        0    0.0000
    399 H         188.6535  119.6005  -19.6813 H        66        0    0.0000
    400 H         188.3839  121.2983  -19.3033 H        66        0    0.0000
    401 H         188.3282  120.0287  -21.9023 H        66        0    0.0000
    402 H         188.0121  121.7173  -21.5187 H        66        0    0.0000
    403 C         190.0673  121.3270  -22.1463 C.3      67        0    0.0000
    404 C         189.8954  121.3525  -23.6691 C.3      67        0    0.0000
    405 H         190.3787  122.3155  -21.7863 H        67        0    0.0000
    406 H         190.8639  120.6255  -21.8693 H        67        0    0.0000
    407 H         189.0295  120.7450  -23.9601 H        67        0    0.0000
    408 H         189.6904  122.3757  -24.0074 H        67        0    0.0000
    409 C         191.1635  120.8167  -24.4191 C.3      68        0    0.0000
    410 C         190.9939  120.8478  -25.9420 C.3      68        0    0.0000
    411 H         192.0302  121.4214  -24.1246 H        68        0    0.0000
    412 H         191.3659  119.7919  -24.0839 H        68        0    0.0000
    413 H         191.9495  120.6227  -26.4315 H        68        0    0.0000
    414 H         190.2873  120.0703  -26.2578 H        68        0    0.0000
    415 C         190.4787  122.2370  -26.4542 C.3      69        0    0.0000
    416 C         190.0275  122.1854  -27.9180 C.3      69        0    0.0000
    417 H         189.6484  122.5634  -25.8159 H        69        0    0.0000
    418 H         191.2791  122.9775  -26.3332 H        69        0    0.0000
    419 H         188.9319  122.1733  -27.9737 H        69        0    0.0000
    420 H         190.3598  123.0877  -28.4461 H        69        0    0.0000
    421 C         190.5854  120.9267  -28.6677 C.3      70        0    0.0000
    422 C         190.2372  120.9380  -30.1602 C.3      70        0    0.0000
    423 H         191.6738  120.8901  -28.5356 H        70        0    0.0000
    424 H         190.1800  120.0243  -28.1936 H        70        0    0.0000
    425 H         190.5373  119.9900  -30.6237 H        70        0    0.0000
    426 H         189.1515  121.0235  -30.2926 H        70        0    0.0000
    427 C         190.9337  122.1166  -30.9239 C.3      71        0    0.0000
    428 C         190.6505  122.0808  -32.4297 C.3      71        0    0.0000
    429 H         190.5879  123.0669  -30.4986 H        71        0    0.0000
    430 H         192.0145  122.0653  -30.7431 H        71        0    0.0000
    431 H         189.5959  122.3157  -32.6199 H        71        0    0.0000
    432 H         191.2418  122.8497  -32.9422 H        71        0    0.0000
    433 C         190.9793  120.6850  -33.0631 C.3      72        0    0.0000
    434 C         190.4999  120.5784  -34.5149 C.3      72        0    0.0000
    435 H         192.0627  120.5197  -33.0116 H        72        0    0.0000
    436 H         190.5119  119.9013  -32.4541 H        72        0    0.0000
    437 H         191.2081  119.9807  -35.1020 H        72        0    0.0000
    438 H         189.5366  120.0550  -34.5555 H        72        0    0.0000
    439 C         190.3407  121.9830  -35.1926 C.3      73        0    0.0000
    440 C         190.0336  121.8739  -36.6902 C.3      73        0    0.0000
    441 H         189.5393  122.5325  -34.6834 H        73        0    0.0000
    442 H         191.2631  122.5565  -35.0386 H        73        0    0.0000
    443 H         189.0466  121.4189  -36.8397 H        73        0    0.0000
    444 H         189.9908  122.8739  -37.1393 H        73        0    0.0000
    445 C         191.1040  121.0218  -37.4556 C.3      74        0    0.0000
    446 C         190.7259  120.7970  -38.9238 C.3      74        0    0.0000
    447 H         192.0736  121.5308  -37.3905 H        74        0    0.0000
    448 H         191.2194  120.0577  -36.9451 H        74        0    0.0000
    449 H         191.5783  121.0344  -39.5723 H        74        0    0.0000
    450 H         190.4861  119.7399  -39.0929 H        74        0    0.0000
    451 C         189.4994  121.6696  -39.3617 C.3      75        0    0.0000
    452 C         189.1727  121.5068  -40.8503 C.3      75        0    0.0000
    453 H         188.6307  121.3893  -38.7531 H        75        0    0.0000
    454 H         189.7154  122.7214  -39.1369 H        75        0    0.0000
    455 H         188.7997  120.4936  -41.0449 H        75        0    0.0000
    456 H         188.3707  122.1982  -41.1372 H        75        0    0.0000
    457 C         190.4186  121.7708  -41.7643 C.3      76        0    0.0000
    458 C         190.1647  121.3716  -43.2221 C.3      76        0    0.0000
    459 H         190.6810  122.8345  -41.7058 H        76        0    0.0000
    460 H         191.2746  121.2128  -41.3651 H        76        0    0.0000
    461 H         189.3801  122.0049  -43.6543 H        76        0    0.0000
    462 H         191.0689  121.5377  -43.8206 H        76        0    0.0000
    463 C         189.7357  119.8702  -43.3608 C.3      77        0    0.0000
    464 C         190.6021  119.1095  -44.3706 C.3      77        0    0.0000
    465 H         189.7988  119.3919  -42.3755 H        77        0    0.0000
    466 H         188.6820  119.8300  -43.6636 H        77        0    0.0000
    467 H         190.5390  119.5878  -45.3559 H        77        0    0.0000
    468 H         191.6558  119.1497  -44.0679 H        77        0    0.0000
    469 H         190.3038  118.0655  -44.4671 H        77        0    0.0000
    470 H         149.2798   87.8287  -40.4349 H         0        0    0.0000
@<TRIPOS>BOND
     1     1     2      1
     2     1     3      1
     3     1     4      1
     4     1   470      H
     5     2     5      1
     6     2     6      1
     7     2     7      1
     8     7     8      1
     9     7     9      1
    10     7    10      1
    11     8    11      1
    12     8    12      1
    13     8    13      1
    14    13    14      1
    15    13    15      1
    16    13    16      1
    17    14    17      1
    18    14    18      1
    19    14    19      1
    20    19    20      1
    21    19    21      1
    22    19    22      1
    23    20    23      1
    24    20    24      1
    25    20    25      1
    26    25    26      1
    27    25    27      1
    28    25    28      1
    29    26    29      1
    30    26    30      1
    31    26    31      1
    32    31    32      1
    33    31    33      1
    34    31    34      1
    35    32    35      1
    36    32    36      1
    37    32    37      1
    38    37    38      1
    39    37    39      1
    40    37    40      1
    41    38    41      1
    42    38    42      1
    43    38    43      1
    44    43    44      1
    45    43    45      1
    46    43    46      1
    47    44    47      1
    48    44    48      1
    49    44    49      1
    50    49    50      1
    51    49    51      1
    52    49    52      1
    53    50    53      1
    54    50    54      1
    55    50    55      1
    56    55    56      1
    57    55    57      1
    58    55    58      1
    59    56    59      1
    60    56    60      1
    61    56    61      1
    62    61    62      1
    63    61    63      1
    64    61    64      1
    65    62    65      1
    66    62    66      1
    67    62    67      1
    68    67    68      1
    69    67    69      1
    70    67    70      1
    71    68    71      1
    72    68    72      1
    73    68    73      1
    74    73    74      1
    75    73    75      1
    76    73    76      1
    77    74    77      1
    78    74    78      1
    79    74    79      1
    80    79    80      1
    81    79    81      1
    82    79    82      1
    83    80    83      1
    84    80    84      1
    85    80    85      1
    86    85    86      1
    87    85    87      1
    88    85    88      1
    89    86    89      1
    90    86    90      1
    91    86    91      1
    92    91    92      1
    93    91    93      1
    94    91    94      1
    95    92    95      1
    96    92    96      1
    97    92    97      1
    98    97    98      1
    99    97    99      1
   100    97   100      1
   101    98   101      1
   102    98   102      1
   103    98   103      1
   104   103   104      1
   105   103   105      1
   106   103   106      1
   107   104   107      1
   108   104   108      1
   109   104   109      1
   110   109   110      1
   111   109   111      1
   112   109   112      1
   113   110   113      1
   114   110   114      1
   115   110   115      1
   116   115   116      1
   117   115   117      1
   118   115   118      1
   119   116   119      1
   120   116   120      1
   121   116   121      1
   122   121   122      1
   123   121   123      1
   124   121   124      1
   125   122   125      1
   126   122   126      1
   127   122   127      1
   128   127   128      1
   129   127   129      1
   130   127   130      1
   131   128   131      1
   132   128   132      1
   133   128   133      1
   134   133   134      1
   135   133   135      1
   136   133   136      1
   137   134   137      1
   138   134   138      1
   139   134   139      1
   140   139   140      1
   141   139   141      1
   142   139   142      1
   143   140   143      1
   144   140   144      1
   145   140   145      1
   146   145   146      1
   147   145   147      1
   148   145   148      1
   149   146   149      1
   150   146   150      1
   151   146   151      1
   152   151   152      1
   153   151   153      1
   154   151   154      1
   155   152   155      1
   156   152   156      1
   157   152   157      1
   158   157   158      1
   159   157   159      1
   160   157   160      1
   161   158   161      1
   162   158   162      1
   163   158   163      1
   164   163   164      1
   165   163   165      1
   166   163   166      1
   167   164   167      1
   168   164   168      1
   169   164   169      1
   170   169   170      1
   171   169   171      1
   172   169   172      1
   173   170   173      1
   174   170   174      1
   175   170   175      1
   176   175   176      1
   177   175   177      1
   178   175   178      1
   179   176   179      1
   180   176   180      1
   181   176   181      1
   182   181   182      1
   183   181   183      1
   184   181   184      1
   185   182   185      1
   186   182   186      1
   187   182   187      1
   188   187   188      1
   189   187   189      1
   190   187   190      1
   191   188   191      1
   192   188   192      1
   193   188   193      1
   194   193   194      1
   195   193   195      1
   196   193   196      1
   197   194   197      1
   198   194   198      1
   199   194   199      1
   200   199   200      1
   201   199   201      1
   202   199   202      1
   203   200   203      1
   204   200   204      1
   205   200   205      1
   206   205   206      1
   207   205   207      1
   208   205   208      1
   209   206   209      1
   210   206   210      1
   211   206   211      1
   212   211   212      1
   213   211   213      1
   214   211   214      1
   215   212   215      1
   216   212   216      1
   217   212   217      1
   218   217   218      1
   219   217   219      1
   220   217   220      1
   221   218   221      1
   222   218   222      1
   223   218   223      1
   224   223   224      1
   225   223   225      1
   226   223   226      1
   227   224   227      1
   228   224   228      1
   229   224   229      1
   230   229   230      1
   231   229   231      1
   232   229   232      1
   233   230   233      1
   234   230   234      1
   235   230   235      1
   236   235   236      1
   237   235   237      1
   238   235   238      1
   239   236   239      1
   240   236   240      1
   241   236   241      1
   242   241   242      1
   243   241   243      1
   244   241   244      1
   245   242   245      1
   246   242   246      1
   247   242   247      1
   248   247   248      1
   249   247   249      1
   250   247   250      1
   251   248   251      1
   252   248   252      1
   253   248   253      1
   254   253   254      1
   255   253   255      1
   256   253   256      1
   257   254   257      1
   258   254   258      1
   259   254   259      1
   260   259   260      1
   261   259   261      1
   262   259   262      1
   263   260   263      1
   264   260   264      1
   265   260   265      1
   266   265   266      1
   267   265   267      1
   268   265   268      1
   269   266   269      1
   270   266   270      1
   271   266   271      1
   272   271   272      1
   273   271   273      1
   274   271   274      1
   275   272   275      1
   276   272   276      1
   277   272   277      1
   278   277   278      1
   279   277   279      1
   280   277   280      1
   281   278   281      1
   282   278   282      1
   283   278   283      1
   284   283   284      1
   285   283   285      1
   286   283   286      1
   287   284   287      1
   288   284   288      1
   289   284   289      1
   290   289   290      1
   291   289   291      1
   292   289   292      1
   293   290   293      1
   294   290   294      1
   295   290   295      1
   296   295   296      1
   297   295   297      1
   298   295   298      1
   299   296   299      1
   300   296   300      1
   301   296   301      1
   302   301   302      1
   303   301   303      1
   304   301   304      1
   305   302   305      1
   306   302   306      1
   307   302   307      1
   308   307   308      1
   309   307   309      1
   310   307   310      1
   311   308   311      1
   312   308   312      1
   313   308   313      1
   314   313   314      1
   315   313   315      1
   316   313   316      1
   317   314   317      1
   318   314   318      1
   319   314   319      1
   320   319   320      1
   321   319   321      1
   322   319   322      1
   323   320   323      1
   324   320   324      1
   325   320   325      1
   326   325   326      1
   327   325   327      1
   328   325   328      1
   329   326   329      1
   330   326   330      1
   331   326   331      1
   332   331   332      1
   333   331   333      1
   334   331   334      1
   335   332   335      1
   336   332   336      1
   337   332   337      1
   338   337   338      1
   339   337   339      1
   340   337   340      1
   341   338   341      1
   342   338   342      1
   343   338   343      1
   344   343   344      1
   345   343   345      1
   346   343   346      1
   347   344   347      1
   348   344   348      1
   349   344   349      1
   350   349   350      1
   351   349   351      1
   352   349   352      1
   353   350   353      1
   354   350   354      1
   355   350   355      1
   356   355   356      1
   357   355   357      1
   358   355   358      1
   359   356   359      1
   360   356   360      1
   361   356   361      1
   362   361   362      1
   363   361   363      1
   364   361   364      1
   365   362   365      1
   366   362   366      1
   367   362   367      1
   368   367   368      1
   369   367   369      1
   370   367   370      1
   371   368   371      1
   372   368   372      1
   373   368   373      1
   374   373   374      1
   375   373   375      1
   376   373   376      1
   377   374   377      1
   378   374   378      1
   379   374   379      1
   380   379   380      1
   381   379   381      1
   382   379   382      1
   383   380   383      1
   384   380   384      1
   385   380   385      1
   386   385   386      1
   387   385   387      1
   388   385   388      1
   389   386   389      1
   390   386   390      1
   391   386   391      1
   392   391   392      1
   393   391   393      1
   394   391   394      1
   395   392   395      1
   396   392   396      1
   397   392   397      1
   398   397   398      1
   399   397   399      1
   400   397   400      1
   401   398   401      1
   402   398   402      1
   403   398   403      1
   404   403   404      1
   405   403   405      1
   406   403   406      1
   407   404   407      1
   408   404   408      1
   409   404   409      1
   410   409   410      1
   411   409   411      1
   412   409   412      1
   413   410   413      1
   414   410   414      1
   415   410   415      1
   416   415   416      1
   417   415   417      1
   418   415   418      1
   419   416   419      1
   420   416   420      1
   421   416   421      1
   422   421   422      1
   423   421   423      1
   424   421   424      1
   425   422   425      1
   426   422   426      1
   427   422   427      1
   428   427   428      1
   429   427   429      1
   430   427   430      1
   431   428   431      1
   432   428   432      1
   433   428   433      1
   434   433   434      1
   435   433   435      1
   436   433   436      1
   437   434   437      1
   438   434   438      1
   439   434   439      1
   440   439   440      1
   441   439   441      1
   442   439   442      1
   443   440   443      1
   444   440   444      1
   445   440   445      1
   446   445   446      1
   447   445   447      1
   448   445   448      1
   449   446   449      1
   450   446   450      1
   451   446   451      1
   452   451   452      1
   453   451   453      1
   454   451   454      1
   455   452   455      1
   456   452   456      1
   457   452   457      1
   458   457   458      1
   459   457   459      1
   460   457   460      1
   461   458   461      1
   462   458   462      1
   463   458   463      1
   464   463   464      1
   465   463   465      1
   466   463   466      1
   467   464   467      1
   468   464   468      1
   469   464   469      H
