###
### Created by PolyChef-cpp17 on Thu Feb 27 19:40:30 2025
###

@<TRIPOS>MOLECULE
NO_INFO
158 157 1 0 0
SMALL
USER_CHARGES


@<TRIPOS>ATOM
      1 C           9.2798   18.5487  -39.3449 C.3       0        0    0.0000
      2 C           7.8706   18.3882  -38.7641 C.3       0        0    0.0000
      3 H           9.9271   17.7366  -38.9913 H         0        0    0.0000
      4 H           9.7280   19.4855  -38.9913 H         0        0    0.0000
      5 H           7.3721   19.3640  -38.7113 H         0        0    0.0000
      6 H           7.2611   17.7584  -39.4241 H         0        0    0.0000
      7 C           7.8873   17.7512  -37.3318 C.3       1        0    0.0000
      8 C           9.1652   18.0944  -36.5584 C.3       1        0    0.0000
      9 H           7.0072   18.1018  -36.7786 H         1        0    0.0000
     10 H           7.7864   16.6630  -37.4276 H         1        0    0.0000
     11 H          10.0454   17.9189  -37.1893 H         1        0    0.0000
     12 H           9.1722   19.1599  -36.2973 H         1        0    0.0000
     13 C           9.3091   17.2513  -35.2446 C.3       2        0    0.0000
     14 C          10.2030   17.9400  -34.2075 C.3       2        0    0.0000
     15 H           8.3105   17.0779  -34.8247 H         2        0    0.0000
     16 H           9.7190   16.2662  -35.4997 H         2        0    0.0000
     17 H          11.2582   17.8239  -34.4841 H         2        0    0.0000
     18 H           9.9984   19.0177  -34.1908 H         2        0    0.0000
     19 C           9.9923   17.3633  -32.7651 C.3       3        0    0.0000
     20 C          10.6114   18.2581  -31.6856 C.3       3        0    0.0000
     21 H           8.9166   17.2459  -32.5848 H         3        0    0.0000
     22 H          10.4311   16.3589  -32.7182 H         3        0    0.0000
     23 H          11.7007   18.2986  -31.8099 H         3        0    0.0000
     24 H          10.2436   19.2861  -31.7927 H         3        0    0.0000
     25 C          10.2865   17.7535  -30.2374 C.3       4        0    0.0000
     26 C          10.8875   18.6603  -29.1579 C.3       4        0    0.0000
     27 H           9.1974   17.6978  -30.1184 H         4        0    0.0000
     28 H          10.6683   16.7311  -30.1252 H         4        0    0.0000
     29 H          11.9771   18.7128  -29.2745 H         4        0    0.0000
     30 H          10.5088   19.6835  -29.2725 H         4        0    0.0000
     31 C          10.5579   18.1588  -27.7097 C.3       5        0    0.0000
     32 C          11.1496   19.0717  -26.6301 C.3       5        0    0.0000
     33 H           9.4684   18.0987  -27.5957 H         5        0    0.0000
     34 H          10.9437   17.1386  -27.5924 H         5        0    0.0000
     35 H          12.2391   19.1316  -26.7439 H         5        0    0.0000
     36 H          10.7640   20.0921  -26.7476 H         5        0    0.0000
     37 C          10.8196   18.5705  -25.1819 C.3       6        0    0.0000
     38 C          11.4114   19.4834  -24.1023 C.3       6        0    0.0000
     39 H           9.7301   18.5107  -25.0681 H         6        0    0.0000
     40 H          11.2051   17.5501  -25.0644 H         6        0    0.0000
     41 H          12.5008   19.5441  -24.2169 H         6        0    0.0000
     42 H          11.0250   20.5035  -24.2190 H         6        0    0.0000
     43 C          11.0829   18.9811  -22.6541 C.3       7        0    0.0000
     44 C          11.1088   20.1171  -21.6256 C.3       7        0    0.0000
     45 H          10.0957   18.5026  -22.6612 H         7        0    0.0000
     46 H          11.8071   18.2054  -22.3761 H         7        0    0.0000
     47 H          12.1199   20.5367  -21.5539 H         7        0    0.0000
     48 H          10.4513   20.9333  -21.9499 H         7        0    0.0000
     49 C          10.6575   19.6401  -20.2021 C.3       8        0    0.0000
     50 C          11.6683   20.0205  -19.1145 C.3       8        0    0.0000
     51 H           9.6782   20.0797  -19.9758 H         8        0    0.0000
     52 H          10.5176   18.5522  -20.2216 H         8        0    0.0000
     53 H          12.6908   19.9165  -19.4983 H         8        0    0.0000
     54 H          11.5421   21.0740  -18.8356 H         8        0    0.0000
     55 C          11.5187   19.1360  -17.8289 C.3       9        0    0.0000
     56 C          11.2223   19.9728  -16.5795 C.3       9        0    0.0000
     57 H          10.7155   18.4070  -17.9927 H         9        0    0.0000
     58 H          12.4419   18.5608  -17.6861 H         9        0    0.0000
     59 H          12.1415   20.4524  -16.2211 H         9        0    0.0000
     60 H          10.5209   20.7799  -16.8250 H         9        0    0.0000
     61 C          10.6156   19.1120  -15.4182 C.3      10        0    0.0000
     62 C          11.0561   19.6079  -14.0365 C.3      10        0    0.0000
     63 H           9.5215   19.1354  -15.4951 H        10        0    0.0000
     64 H          10.9189   18.0669  -15.5571 H        10        0    0.0000
     65 H          12.1452   19.7372  -14.0128 H        10        0    0.0000
     66 H          10.6174   20.5926  -13.8328 H        10        0    0.0000
     67 C          10.6393   18.6223  -12.8909 C.3      11        0    0.0000
     68 C          10.9149   19.2003  -11.4985 C.3      11        0    0.0000
     69 H           9.5727   18.3880  -12.9966 H        11        0    0.0000
     70 H          11.1835   17.6786  -13.0210 H        11        0    0.0000
     71 H          11.9876   19.3958  -11.3779 H        11        0    0.0000
     72 H          10.4041   20.1644  -11.3835 H        11        0    0.0000
     73 C          10.4445   18.2395  -10.3526 C.3      12        0    0.0000
     74 C          10.7295   18.8130   -8.9601 C.3      12        0    0.0000
     75 H           9.3701   18.0501  -10.4687 H        12        0    0.0000
     76 H          10.9495   17.2730  -10.4719 H        12        0    0.0000
     77 H          11.8038   19.0025   -8.8440 H        12        0    0.0000
     78 H          10.2244   19.7795   -8.8408 H        12        0    0.0000
     79 C          10.2591   17.8522   -7.8142 C.3      13        0    0.0000
     80 C          10.5427   18.4263   -6.4218 C.3      13        0    0.0000
     81 H           9.1850   17.6618   -7.9310 H        13        0    0.0000
     82 H          10.7650   16.8860   -7.9329 H        13        0    0.0000
     83 H          11.6169   18.6154   -6.3044 H        13        0    0.0000
     84 H          10.0379   19.3932   -6.3036 H        13        0    0.0000
     85 C          10.0704   17.4665   -5.2759 C.3      14        0    0.0000
     86 C          10.3539   18.0406   -3.8834 C.3      14        0    0.0000
     87 H           8.9961   17.2775   -5.3932 H        14        0    0.0000
     88 H          10.5751   16.4996   -5.3940 H        14        0    0.0000
     89 H          11.4290   18.2230   -3.7635 H        14        0    0.0000
     90 H           9.8550   19.0109   -3.7679 H        14        0    0.0000
     91 C           9.8725   17.0853   -2.7375 C.3      15        0    0.0000
     92 C          10.1530   17.6610   -1.3451 C.3      15        0    0.0000
     93 H           8.7979   16.9010   -2.8589 H        15        0    0.0000
     94 H          10.3733   16.1159   -2.8516 H        15        0    0.0000
     95 H          11.2251   17.8634   -1.2307 H        15        0    0.0000
     96 H           9.6364   18.6212   -1.2240 H        15        0    0.0000
     97 C           9.6963   16.6936   -0.1992 C.3      16        0    0.0000
     98 C           9.9048   17.3019    1.1920 C.3      16        0    0.0000
     99 H           8.6379   16.4456   -0.3466 H        16        0    0.0000
    100 H          10.2552   15.7536   -0.2863 H        16        0    0.0000
    101 H           8.9372   17.4440    1.6892 H        16        0    0.0000
    102 H          10.4839   16.6140    1.8205 H        16        0    0.0000
    103 C          10.6495   18.6801    1.1324 C.3      17        0    0.0000
    104 C          10.6658   19.3907    2.4902 C.3      17        0    0.0000
    105 H          11.6759   18.5125    0.7832 H        17        0    0.0000
    106 H          10.1609   19.3138    0.3820 H        17        0    0.0000
    107 H           9.6410   19.5177    2.8606 H        17        0    0.0000
    108 H          11.1942   18.7766    3.2299 H        17        0    0.0000
    109 C          11.3543   20.7971    2.4165 C.3      18        0    0.0000
    110 C          11.6705   21.3626    3.8055 C.3      18        0    0.0000
    111 H          12.2756   20.7093    1.8274 H        18        0    0.0000
    112 H          10.6962   21.4849    1.8713 H        18        0    0.0000
    113 H          12.1588   22.3404    3.7113 H        18        0    0.0000
    114 H          10.7414   21.5269    4.3652 H        18        0    0.0000
    115 C          12.5995   20.4119    4.6365 C.3      19        0    0.0000
    116 C          12.7927   20.9013    6.0761 C.3      19        0    0.0000
    117 H          12.1651   19.4045    4.6368 H        19        0    0.0000
    118 H          13.5705   20.3361    4.1315 H        19        0    0.0000
    119 H          13.8427   20.7896    6.3736 H        19        0    0.0000
    120 H          12.5580   21.9708    6.1445 H        19        0    0.0000
    121 C          11.8930   20.1203    7.0949 C.3      20        0    0.0000
    122 C          12.3882   20.2664    8.5380 C.3      20        0    0.0000
    123 H          10.8629   20.4886    7.0115 H        20        0    0.0000
    124 H          11.8730   19.0612    6.8095 H        20        0    0.0000
    125 H          13.4626   20.4880    8.5463 H        20        0    0.0000
    126 H          11.8880   21.1137    9.0233 H        20        0    0.0000
    127 C          12.1320   18.9742    9.3877 C.3      21        0    0.0000
    128 C          12.5913   19.1343   10.8411 C.3      21        0    0.0000
    129 H          11.0616   18.7363    9.3554 H        21        0    0.0000
    130 H          12.6561   18.1326    8.9181 H        21        0    0.0000
    131 H          13.6854   19.2020   10.8846 H        21        0    0.0000
    132 H          12.2009   20.0710   11.2580 H        21        0    0.0000
    133 C          12.1222   17.9439   11.7469 C.3      22        0    0.0000
    134 C          12.5867   18.1009   13.1990 C.3      22        0    0.0000
    135 H          11.0278   17.8791   11.7069 H        22        0    0.0000
    136 H          12.5089   17.0068   11.3275 H        22        0    0.0000
    137 H          12.0208   18.9021   13.6904 H        22        0    0.0000
    138 H          12.3827   17.1809   13.7608 H        22        0    0.0000
    139 C          14.1166   18.4268   13.3015 C.3      23        0    0.0000
    140 C          14.5637   18.6674   14.7477 C.3      23        0    0.0000
    141 H          14.6851   17.5961   12.8653 H        23        0    0.0000
    142 H          14.3315   19.3114   12.6893 H        23        0    0.0000
    143 H          15.4227   18.0284   14.9870 H        23        0    0.0000
    144 H          14.8988   19.7048   14.8702 H        23        0    0.0000
    145 C          13.4182   18.3812   15.7790 C.3      24        0    0.0000
    146 C          13.9542   18.1755   17.2001 C.3      24        0    0.0000
    147 H          12.7096   19.2185   15.7618 H        24        0    0.0000
    148 H          12.8636   17.4923   15.4538 H        24        0    0.0000
    149 H          14.9556   18.6141   17.2916 H        24        0    0.0000
    150 H          13.3145   18.6973   17.9226 H        24        0    0.0000
    151 C          14.0285   16.6598   17.5934 C.3      25        0    0.0000
    152 C          13.5790   16.4117   19.0375 C.3      25        0    0.0000
    153 H          13.4030   16.0836   16.9004 H        25        0    0.0000
    154 H          15.0585   16.3086   17.4544 H        25        0    0.0000
    155 H          14.2046   16.9880   19.7304 H        25        0    0.0000
    156 H          12.5490   16.7630   19.1764 H        25        0    0.0000
    157 H          13.6307   15.3579   19.3109 H        25        0    0.0000
    158 H           9.2798   18.5487  -40.4349 H         0        0    0.0000
@<TRIPOS>BOND
     1     1     2      1
     2     1     3      1
     3     1     4      1
     4     1   158      H
     5     2     5      1
     6     2     6      1
     7     2     7      1
     8     7     8      1
     9     7     9      1
    10     7    10      1
    11     8    11      1
    12     8    12      1
    13     8    13      1
    14    13    14      1
    15    13    15      1
    16    13    16      1
    17    14    17      1
    18    14    18      1
    19    14    19      1
    20    19    20      1
    21    19    21      1
    22    19    22      1
    23    20    23      1
    24    20    24      1
    25    20    25      1
    26    25    26      1
    27    25    27      1
    28    25    28      1
    29    26    29      1
    30    26    30      1
    31    26    31      1
    32    31    32      1
    33    31    33      1
    34    31    34      1
    35    32    35      1
    36    32    36      1
    37    32    37      1
    38    37    38      1
    39    37    39      1
    40    37    40      1
    41    38    41      1
    42    38    42      1
    43    38    43      1
    44    43    44      1
    45    43    45      1
    46    43    46      1
    47    44    47      1
    48    44    48      1
    49    44    49      1
    50    49    50      1
    51    49    51      1
    52    49    52      1
    53    50    53      1
    54    50    54      1
    55    50    55      1
    56    55    56      1
    57    55    57      1
    58    55    58      1
    59    56    59      1
    60    56    60      1
    61    56    61      1
    62    61    62      1
    63    61    63      1
    64    61    64      1
    65    62    65      1
    66    62    66      1
    67    62    67      1
    68    67    68      1
    69    67    69      1
    70    67    70      1
    71    68    71      1
    72    68    72      1
    73    68    73      1
    74    73    74      1
    75    73    75      1
    76    73    76      1
    77    74    77      1
    78    74    78      1
    79    74    79      1
    80    79    80      1
    81    79    81      1
    82    79    82      1
    83    80    83      1
    84    80    84      1
    85    80    85      1
    86    85    86      1
    87    85    87      1
    88    85    88      1
    89    86    89      1
    90    86    90      1
    91    86    91      1
    92    91    92      1
    93    91    93      1
    94    91    94      1
    95    92    95      1
    96    92    96      1
    97    92    97      1
    98    97    98      1
    99    97    99      1
   100    97   100      1
   101    98   101      1
   102    98   102      1
   103    98   103      1
   104   103   104      1
   105   103   105      1
   106   103   106      1
   107   104   107      1
   108   104   108      1
   109   104   109      1
   110   109   110      1
   111   109   111      1
   112   109   112      1
   113   110   113      1
   114   110   114      1
   115   110   115      1
   116   115   116      1
   117   115   117      1
   118   115   118      1
   119   116   119      1
   120   116   120      1
   121   116   121      1
   122   121   122      1
   123   121   123      1
   124   121   124      1
   125   122   125      1
   126   122   126      1
   127   122   127      1
   128   127   128      1
   129   127   129      1
   130   127   130      1
   131   128   131      1
   132   128   132      1
   133   128   133      1
   134   133   134      1
   135   133   135      1
   136   133   136      1
   137   134   137      1
   138   134   138      1
   139   134   139      1
   140   139   140      1
   141   139   141      1
   142   139   142      1
   143   140   143      1
   144   140   144      1
   145   140   145      1
   146   145   146      1
   147   145   147      1
   148   145   148      1
   149   146   149      1
   150   146   150      1
   151   146   151      1
   152   151   152      1
   153   151   153      1
   154   151   154      1
   155   152   155      1
   156   152   156      1
   157   152   157      H
