###
### Created by PolyChef-cpp17 on Thu Feb 27 19:40:28 2025
###

@<TRIPOS>MOLECULE
NO_INFO
290 289 1 0 0
SMALL
USER_CHARGES


@<TRIPOS>ATOM
      1 C          99.2798   35.8687  -39.3449 C.3       0        0    0.0000
      2 C          97.8706   35.7082  -38.7641 C.3       0        0    0.0000
      3 H          99.9271   35.0566  -38.9913 H         0        0    0.0000
      4 H          99.7280   36.8055  -38.9913 H         0        0    0.0000
      5 H          97.3720   36.6840  -38.7115 H         0        0    0.0000
      6 H          97.2612   35.0783  -39.4240 H         0        0    0.0000
      7 C          97.8873   35.0715  -37.3317 C.3       1        0    0.0000
      8 C          99.1653   35.4147  -36.5584 C.3       1        0    0.0000
      9 H          97.0073   35.4222  -36.7785 H         1        0    0.0000
     10 H          97.7863   33.9833  -37.4272 H         1        0    0.0000
     11 H         100.0454   35.2387  -37.1892 H         1        0    0.0000
     12 H          99.1726   36.4804  -36.2978 H         1        0    0.0000
     13 C          99.3089   34.5723  -35.2442 C.3       2        0    0.0000
     14 C         100.2055   35.2598  -34.2086 C.3       2        0    0.0000
     15 H          98.3105   34.4012  -34.8230 H         2        0    0.0000
     16 H          99.7164   33.5861  -35.4991 H         2        0    0.0000
     17 H         101.2602   35.1403  -34.4857 H         2        0    0.0000
     18 H         100.0040   36.3380  -34.1932 H         2        0    0.0000
     19 C          99.9942   34.6856  -32.7653 C.3       3        0    0.0000
     20 C         100.6160   35.5804  -31.6874 C.3       3        0    0.0000
     21 H          98.9182   34.5710  -32.5843 H         3        0    0.0000
     22 H         100.4305   33.6802  -32.7173 H         3        0    0.0000
     23 H         101.7050   35.6208  -31.8143 H         3        0    0.0000
     24 H         100.2481   36.6084  -31.7937 H         3        0    0.0000
     25 C         100.2945   35.0759  -30.2384 C.3       4        0    0.0000
     26 C         100.8853   35.9911  -29.1603 C.3       4        0    0.0000
     27 H          99.2058   35.0098  -30.1204 H         4        0    0.0000
     28 H         100.6863   34.0576  -30.1234 H         4        0    0.0000
     29 H         101.9749   36.0514  -29.2738 H         4        0    0.0000
     30 H         100.4992   37.0110  -29.2797 H         4        0    0.0000
     31 C         100.5551   35.4923  -27.7113 C.3       5        0    0.0000
     32 C         101.1578   36.3998  -26.6331 C.3       5        0    0.0000
     33 H          99.4655   35.4418  -27.5944 H         5        0    0.0000
     34 H         100.9322   34.4686  -27.5952 H         5        0    0.0000
     35 H         102.2472   36.4518  -26.7512 H         5        0    0.0000
     36 H         100.7792   37.4230  -26.7481 H         5        0    0.0000
     37 C         100.8298   35.8994  -25.1841 C.3       6        0    0.0000
     38 C         101.4275   36.8102  -24.1060 C.3       6        0    0.0000
     39 H          99.7404   35.8433  -25.0675 H         6        0    0.0000
     40 H         101.2122   34.8778  -25.0678 H         6        0    0.0000
     41 H         102.5170   36.8654  -24.2219 H         6        0    0.0000
     42 H         101.0461   37.8321  -24.2230 H         6        0    0.0000
     43 C         101.0983   36.3107  -22.6570 C.3       7        0    0.0000
     44 C         102.1567   36.7466  -21.6378 C.3       7        0    0.0000
     45 H         100.1137   36.6966  -22.3652 H         7        0    0.0000
     46 H         101.0167   35.2168  -22.6701 H         7        0    0.0000
     47 H         103.1550   36.4483  -21.9813 H         7        0    0.0000
     48 H         102.1673   37.8402  -21.5508 H         7        0    0.0000
     49 C         101.9051   36.1293  -20.2190 C.3       8        0    0.0000
     50 C         101.8831   37.1948  -19.1175 C.3       8        0    0.0000
     51 H         100.9531   35.5843  -20.2343 H         8        0    0.0000
     52 H         102.6882   35.3896  -20.0113 H         8        0    0.0000
     53 H         102.9081   37.4673  -18.8372 H         8        0    0.0000
     54 H         101.4042   38.1095  -19.4885 H         8        0    0.0000
     55 C         101.1210   36.7093  -17.8365 C.3       9        0    0.0000
     56 C         101.9997   36.7650  -16.5819 C.3       9        0    0.0000
     57 H         100.2285   37.3322  -17.6986 H         9        0    0.0000
     58 H         100.7672   35.6843  -18.0027 H         9        0    0.0000
     59 H         103.0139   36.4193  -16.8173 H         9        0    0.0000
     60 H         102.0929   37.8012  -16.2337 H         9        0    0.0000
     61 C         101.4255   35.8896  -15.4151 C.3      10        0    0.0000
     62 C         101.7324   36.4853  -14.0368 C.3      10        0    0.0000
     63 H         100.3412   35.7895  -15.5487 H        10        0    0.0000
     64 H         101.8468   34.8794  -15.4907 H        10        0    0.0000
     65 H         102.8111   36.4445  -13.8411 H        10        0    0.0000
     66 H         101.4477   37.5445  -14.0129 H        10        0    0.0000
     67 C         100.9810   35.7340  -12.8842 C.3      11        0    0.0000
     68 C         101.4196   36.2131  -11.4959 C.3      11        0    0.0000
     69 H          99.9014   35.8831  -13.0099 H        11        0    0.0000
     70 H         101.1643   34.6571  -12.9857 H        11        0    0.0000
     71 H         102.5052   36.1010  -11.3849 H        11        0    0.0000
     72 H         101.1998   37.2817  -11.3800 H        11        0    0.0000
     73 C         100.7095   35.4232  -10.3431 C.3      12        0    0.0000
     74 C         101.1434   35.9064   -8.9548 C.3      12        0    0.0000
     75 H          99.6237   35.5317  -10.4567 H        12        0    0.0000
     76 H         100.9329   34.3551  -10.4564 H        12        0    0.0000
     77 H         102.2290   35.7970   -8.8408 H        12        0    0.0000
     78 H         100.9210   36.9748   -8.8419 H        12        0    0.0000
     79 C         100.4322   35.1175   -7.8019 C.3      13        0    0.0000
     80 C         100.8685   35.5986   -6.4137 C.3      13        0    0.0000
     81 H          99.3466   35.2289   -7.9146 H        13        0    0.0000
     82 H         100.6528   34.0490   -7.9162 H        13        0    0.0000
     83 H         101.9544   35.4895   -6.3019 H        13        0    0.0000
     84 H         100.6457   36.6666   -6.2985 H        13        0    0.0000
     85 C         100.1599   34.8074   -5.2608 C.3      14        0    0.0000
     86 C         100.6093   35.2766   -3.8727 C.3      14        0    0.0000
     87 H          99.0743   34.9271   -5.3651 H        14        0    0.0000
     88 H         100.3721   33.7381   -5.3834 H        14        0    0.0000
     89 H         101.6965   35.1689   -3.7730 H        14        0    0.0000
     90 H         100.3854   36.3430   -3.7453 H        14        0    0.0000
     91 C          99.9142   34.4731   -2.7200 C.3      15        0    0.0000
     92 C         100.3370   34.9658   -1.3317 C.3      15        0    0.0000
     93 H          98.8266   34.5597   -2.8347 H        15        0    0.0000
     94 H         100.1592   33.4097   -2.8326 H        15        0    0.0000
     95 H         101.4170   34.8283   -1.1966 H        15        0    0.0000
     96 H         100.1423   36.0414   -1.2388 H        15        0    0.0000
     97 C          99.5841   34.2146   -0.1800 C.3      16        0    0.0000
     98 C          99.9700   34.7415    1.2066 C.3      16        0    0.0000
     99 H          98.5034   34.3214   -0.3356 H        16        0    0.0000
    100 H          99.8082   33.1431   -0.2510 H        16        0    0.0000
    101 H          99.3311   34.2859    1.9733 H        16        0    0.0000
    102 H         101.0016   34.4540    1.4445 H        16        0    0.0000
    103 C          99.8444   36.3009    1.3057 C.3      17        0    0.0000
    104 C         100.2806   36.8329    2.6752 C.3      17        0    0.0000
    105 H         100.4530   36.7557    0.5142 H        17        0    0.0000
    106 H          98.8039   36.5853    1.1056 H        17        0    0.0000
    107 H         101.1463   37.4973    2.5624 H        17        0    0.0000
    108 H          99.4774   37.4346    3.1183 H        17        0    0.0000
    109 C         100.6550   35.6796    3.6688 C.3      18        0    0.0000
    110 C         101.0732   36.2109    5.0443 C.3      18        0    0.0000
    111 H          99.7939   35.0076    3.7710 H        18        0    0.0000
    112 H         101.4677   35.0863    3.2318 H        18        0    0.0000
    113 H         100.1948   36.5809    5.5876 H        18        0    0.0000
    114 H         101.4980   35.3992    5.6478 H        18        0    0.0000
    115 C         102.1265   37.3672    4.9395 C.3      19        0    0.0000
    116 C         102.3859   38.0409    6.2915 C.3      19        0    0.0000
    117 H         103.0617   36.9582    4.5374 H        19        0    0.0000
    118 H         101.7682   38.1071    4.2131 H        19        0    0.0000
    119 H         103.4637   38.1802    6.4417 H        19        0    0.0000
    120 H         101.9339   39.0404    6.3066 H        19        0    0.0000
    121 C         101.8121   37.2087    7.4897 C.3      20        0    0.0000
    122 C         101.9737   37.9336    8.8304 C.3      20        0    0.0000
    123 H         100.7518   37.0005    7.3001 H        20        0    0.0000
    124 H         102.3227   36.2383    7.5229 H        20        0    0.0000
    125 H         100.9896   38.2049    9.2324 H        20        0    0.0000
    126 H         102.4410   37.2662    9.5650 H        20        0    0.0000
    127 C         102.8428   39.2321    8.7028 C.3      21        0    0.0000
    128 C         102.8881   40.0315   10.0097 C.3      21        0    0.0000
    129 H         103.8584   38.9494    8.3994 H        21        0    0.0000
    130 H         102.4343   39.8531    7.8959 H        21        0    0.0000
    131 H         101.8717   40.3062   10.3180 H        21        0    0.0000
    132 H         103.3052   39.4135   10.8144 H        21        0    0.0000
    133 C         103.7463   41.3367    9.8783 C.3      22        0    0.0000
    134 C         103.7484   42.1629   11.1692 C.3      22        0    0.0000
    135 H         104.7727   41.0592    9.6076 H        22        0    0.0000
    136 H         103.3529   41.9366    9.0483 H        22        0    0.0000
    137 H         102.7207   42.4249   11.4498 H        22        0    0.0000
    138 H         104.1589   41.5691   11.9952 H        22        0    0.0000
    139 C         104.5856   43.4809   11.0296 C.3      23        0    0.0000
    140 C         103.8289   44.7076   11.5507 C.3      23        0    0.0000
    141 H         105.5288   43.3603   11.5768 H        23        0    0.0000
    142 H         104.8496   43.6221    9.9742 H        23        0    0.0000
    143 H         102.7635   44.6261   11.3018 H        23        0    0.0000
    144 H         103.8942   44.7532   12.6448 H        23        0    0.0000
    145 C         104.3859   46.0465   10.9551 C.3      24        0    0.0000
    146 C         105.0910   46.9035   12.0122 C.3      24        0    0.0000
    147 H         105.0799   45.8089   10.1394 H        24        0    0.0000
    148 H         103.5555   46.6075   10.5088 H        24        0    0.0000
    149 H         104.4024   47.6644   12.4000 H        24        0    0.0000
    150 H         105.3856   46.2807   12.8660 H        24        0    0.0000
    151 C         106.3656   47.6178   11.4443 C.3      25        0    0.0000
    152 C         106.0958   49.0808   11.0756 C.3      25        0    0.0000
    153 H         107.1662   47.5598   12.1921 H        25        0    0.0000
    154 H         106.7169   47.0665   10.5633 H        25        0    0.0000
    155 H         105.0195   49.2414   10.9367 H        25        0    0.0000
    156 H         106.4093   49.7392   11.8952 H        25        0    0.0000
    157 C         106.8439   49.5115    9.7671 C.3      26        0    0.0000
    158 C         105.9760   50.3973    8.8665 C.3      26        0    0.0000
    159 H         107.7631   50.0426   10.0438 H        26        0    0.0000
    160 H         107.1525   48.6100    9.2232 H        26        0    0.0000
    161 H         104.9441   50.0249    8.8546 H        26        0    0.0000
    162 H         105.9379   51.4180    9.2670 H        26        0    0.0000
    163 C         106.5105   50.4519    7.3939 C.3      27        0    0.0000
    164 C         106.9770   51.8568    6.9970 C.3      27        0    0.0000
    165 H         107.3372   49.7380    7.2911 H        27        0    0.0000
    166 H         105.7164   50.1138    6.7167 H        27        0    0.0000
    167 H         106.1212   52.4575    6.6649 H        27        0    0.0000
    168 H         107.4043   52.3711    7.8668 H        27        0    0.0000
    169 C         108.0473   51.8261    5.8520 C.3      28        0    0.0000
    170 C         107.5902   52.5970    4.6087 C.3      28        0    0.0000
    171 H         108.9851   52.2491    6.2332 H        28        0    0.0000
    172 H         108.2561   50.7812    5.5911 H        28        0    0.0000
    173 H         106.5136   52.4550    4.4528 H        28        0    0.0000
    174 H         107.7483   53.6729    4.7539 H        28        0    0.0000
    175 C         108.3520   52.1444    3.3156 C.3      29        0    0.0000
    176 C         108.1826   53.1403    2.1630 C.3      29        0    0.0000
    177 H         109.4158   52.0243    3.5556 H        29        0    0.0000
    178 H         107.9832   51.1557    3.0157 H        29        0    0.0000
    179 H         107.1238   53.2196    1.8870 H        29        0    0.0000
    180 H         108.5012   54.1409    2.4805 H        29        0    0.0000
    181 C         109.0057   52.7267    0.8946 C.3      30        0    0.0000
    182 C         108.5552   53.4806   -0.3615 C.3      30        0    0.0000
    183 H         110.0692   52.9164    1.0859 H        30        0    0.0000
    184 H         108.9010   51.6454    0.7422 H        30        0    0.0000
    185 H         107.4698   53.3841   -0.4890 H        30        0    0.0000
    186 H         108.7656   54.5518   -0.2531 H        30        0    0.0000
    187 C         109.2649   52.9547   -1.6566 C.3      31        0    0.0000
    188 C         108.5347   53.3839   -2.9340 C.3      31        0    0.0000
    189 H         110.2968   53.3267   -1.6701 H        31        0    0.0000
    190 H         109.3250   51.8604   -1.6073 H        31        0    0.0000
    191 H         107.4762   53.1017   -2.8751 H        31        0    0.0000
    192 H         108.5645   54.4758   -3.0355 H        31        0    0.0000
    193 C         109.1586   52.7397   -4.2198 C.3      32        0    0.0000
    194 C         108.5320   53.2878   -5.5066 C.3      32        0    0.0000
    195 H         110.2399   52.9252   -4.2192 H        32        0    0.0000
    196 H         109.0256   51.6518   -4.1704 H        32        0    0.0000
    197 H         107.4577   53.0667   -5.5257 H        32        0    0.0000
    198 H         108.6294   54.3801   -5.5368 H        32        0    0.0000
    199 C         109.1948   52.6858   -6.7934 C.3      33        0    0.0000
    200 C         108.5747   53.2412   -8.0803 C.3      33        0    0.0000
    201 H         110.2703   52.9008   -6.7708 H        33        0    0.0000
    202 H         109.0912   51.5940   -6.7667 H        33        0    0.0000
    203 H         107.4995   53.0244   -8.1037 H        33        0    0.0000
    204 H         108.6765   54.3332   -8.1061 H        33        0    0.0000
    205 C         109.2393   52.6412   -9.3670 C.3      34        0    0.0000
    206 C         108.6230   53.2008  -10.6539 C.3      34        0    0.0000
    207 H         110.3151   52.8545   -9.3416 H        34        0    0.0000
    208 H         109.1339   51.5495   -9.3432 H        34        0    0.0000
    209 H         107.5474   52.9864  -10.6800 H        34        0    0.0000
    210 H         108.7272   54.2926  -10.6771 H        34        0    0.0000
    211 C         109.2888   52.6021  -11.9407 C.3      35        0    0.0000
    212 C         108.6698   53.1587  -13.2276 C.3      35        0    0.0000
    213 H         110.3639   52.8191  -11.9161 H        35        0    0.0000
    214 H         109.1871   51.5101  -11.9160 H        35        0    0.0000
    215 H         107.5944   52.9427  -13.2517 H        35        0    0.0000
    216 H         108.7724   54.2506  -13.2527 H        35        0    0.0000
    217 C         109.3345   52.5589  -14.5143 C.3      36        0    0.0000
    218 C         108.7172   53.1173  -15.8012 C.3      36        0    0.0000
    219 H         110.4102   52.7732  -14.4893 H        36        0    0.0000
    220 H         109.2302   51.4671  -14.4901 H        36        0    0.0000
    221 H         107.6418   52.9021  -15.8267 H        36        0    0.0000
    222 H         108.8207   54.2092  -15.8250 H        36        0    0.0000
    223 C         109.3830   52.5186  -17.0880 C.3      37        0    0.0000
    224 C         108.7626   53.0737  -18.3749 C.3      37        0    0.0000
    225 H         110.4579   52.7366  -17.0641 H        37        0    0.0000
    226 H         109.2824   51.4264  -17.0626 H        37        0    0.0000
    227 H         107.6876   52.8563  -18.3984 H        37        0    0.0000
    228 H         108.8639   54.1658  -18.4006 H        37        0    0.0000
    229 C         109.4277   52.4741  -19.6616 C.3      38        0    0.0000
    230 C         108.8108   53.0331  -20.9485 C.3      38        0    0.0000
    231 H         110.5033   52.6882  -19.6362 H        38        0    0.0000
    232 H         109.3231   51.3823  -19.6377 H        38        0    0.0000
    233 H         107.7353   52.8186  -20.9742 H        38        0    0.0000
    234 H         108.9150   54.1250  -20.9721 H        38        0    0.0000
    235 C         109.4764   52.4342  -22.2353 C.3      39        0    0.0000
    236 C         108.8566   52.9899  -23.5222 C.3      39        0    0.0000
    237 H         110.5514   52.6515  -22.2112 H        39        0    0.0000
    238 H         109.3751   51.3421  -22.2101 H        39        0    0.0000
    239 H         107.7809   52.7754  -23.5447 H        39        0    0.0000
    240 H         108.9607   54.0816  -23.5489 H        39        0    0.0000
    241 C         109.5191   52.3875  -24.8089 C.3      40        0    0.0000
    242 C         108.9071   52.9518  -26.0958 C.3      40        0    0.0000
    243 H         110.5960   52.5946  -24.7822 H        40        0    0.0000
    244 H         109.4075   51.2963  -24.7863 H        40        0    0.0000
    245 H         107.8305   52.7427  -26.1235 H        40        0    0.0000
    246 H         109.0168   54.0431  -26.1174 H        40        0    0.0000
    247 C         109.5715   52.3516  -27.3825 C.3      41        0    0.0000
    248 C         108.9553   52.9112  -28.6694 C.3      41        0    0.0000
    249 H         110.6474   52.5646  -27.3571 H        41        0    0.0000
    250 H         109.4659   51.2599  -27.3587 H        41        0    0.0000
    251 H         107.8791   52.6996  -28.6941 H        41        0    0.0000
    252 H         109.0624   54.0027  -28.6941 H        41        0    0.0000
    253 C         109.6182   52.3092  -29.9562 C.3      42        0    0.0000
    254 C         109.0003   52.8670  -31.2431 C.3      42        0    0.0000
    255 H         110.6941   52.5224  -29.9324 H        42        0    0.0000
    256 H         109.5127   51.2176  -29.9306 H        42        0    0.0000
    257 H         107.9242   52.6547  -31.2664 H        42        0    0.0000
    258 H         109.1067   53.9586  -31.2691 H        42        0    0.0000
    259 C         109.6622   52.2640  -32.5298 C.3      43        0    0.0000
    260 C         109.0484   52.8263  -33.8167 C.3      43        0    0.0000
    261 H         110.7390   52.4725  -32.5043 H        43        0    0.0000
    262 H         109.5519   51.1728  -32.5060 H        43        0    0.0000
    263 H         107.9718   52.6170  -33.8427 H        43        0    0.0000
    264 H         109.1578   53.9176  -33.8401 H        43        0    0.0000
    265 C         109.7114   52.2244  -35.1035 C.3      44        0    0.0000
    266 C         109.0938   52.7826  -36.3904 C.3      44        0    0.0000
    267 H         110.7873   52.4373  -35.0795 H        44        0    0.0000
    268 H         109.6055   51.1328  -35.0781 H        44        0    0.0000
    269 H         108.0176   52.5707  -36.4138 H        44        0    0.0000
    270 H         109.2006   53.8741  -36.4162 H        44        0    0.0000
    271 C         109.7556   52.1795  -37.6771 C.3      45        0    0.0000
    272 C         109.1432   52.7432  -38.9640 C.3      45        0    0.0000
    273 H         110.8327   52.3865  -37.6510 H        45        0    0.0000
    274 H         109.6439   51.0883  -37.6539 H        45        0    0.0000
    275 H         108.0660   52.5370  -38.9897 H        45        0    0.0000
    276 H         109.2557   53.8342  -38.9876 H        45        0    0.0000
    277 C         109.8042   52.1392  -40.2507 C.3      46        0    0.0000
    278 C         109.2063   52.7185  -41.5375 C.3      46        0    0.0000
    279 H         110.8837   52.3319  -40.2175 H        46        0    0.0000
    280 H         109.6781   51.0495  -40.2347 H        46        0    0.0000
    281 H         109.7815   52.3765  -42.4068 H        46        0    0.0000
    282 H         108.1812   52.3523  -41.6741 H        46        0    0.0000
    283 C         109.1860   54.2860  -41.5300 C.3      47        0    0.0000
    284 C         109.9469   54.8825  -42.7192 C.3      47        0    0.0000
    285 H         108.1431   54.6262  -41.5418 H        47        0    0.0000
    286 H         109.6224   54.6408  -40.5880 H        47        0    0.0000
    287 H         110.9898   54.5423  -42.7074 H        47        0    0.0000
    288 H         109.5105   54.5278  -43.6612 H        47        0    0.0000
    289 H         109.9328   55.9724  -42.7140 H        47        0    0.0000
    290 H          99.2798   35.8687  -40.4349 H         0        0    0.0000
@<TRIPOS>BOND
     1     1     2      1
     2     1     3      1
     3     1     4      1
     4     1   290      H
     5     2     5      1
     6     2     6      1
     7     2     7      1
     8     7     8      1
     9     7     9      1
    10     7    10      1
    11     8    11      1
    12     8    12      1
    13     8    13      1
    14    13    14      1
    15    13    15      1
    16    13    16      1
    17    14    17      1
    18    14    18      1
    19    14    19      1
    20    19    20      1
    21    19    21      1
    22    19    22      1
    23    20    23      1
    24    20    24      1
    25    20    25      1
    26    25    26      1
    27    25    27      1
    28    25    28      1
    29    26    29      1
    30    26    30      1
    31    26    31      1
    32    31    32      1
    33    31    33      1
    34    31    34      1
    35    32    35      1
    36    32    36      1
    37    32    37      1
    38    37    38      1
    39    37    39      1
    40    37    40      1
    41    38    41      1
    42    38    42      1
    43    38    43      1
    44    43    44      1
    45    43    45      1
    46    43    46      1
    47    44    47      1
    48    44    48      1
    49    44    49      1
    50    49    50      1
    51    49    51      1
    52    49    52      1
    53    50    53      1
    54    50    54      1
    55    50    55      1
    56    55    56      1
    57    55    57      1
    58    55    58      1
    59    56    59      1
    60    56    60      1
    61    56    61      1
    62    61    62      1
    63    61    63      1
    64    61    64      1
    65    62    65      1
    66    62    66      1
    67    62    67      1
    68    67    68      1
    69    67    69      1
    70    67    70      1
    71    68    71      1
    72    68    72      1
    73    68    73      1
    74    73    74      1
    75    73    75      1
    76    73    76      1
    77    74    77      1
    78    74    78      1
    79    74    79      1
    80    79    80      1
    81    79    81      1
    82    79    82      1
    83    80    83      1
    84    80    84      1
    85    80    85      1
    86    85    86      1
    87    85    87      1
    88    85    88      1
    89    86    89      1
    90    86    90      1
    91    86    91      1
    92    91    92      1
    93    91    93      1
    94    91    94      1
    95    92    95      1
    96    92    96      1
    97    92    97      1
    98    97    98      1
    99    97    99      1
   100    97   100      1
   101    98   101      1
   102    98   102      1
   103    98   103      1
   104   103   104      1
   105   103   105      1
   106   103   106      1
   107   104   107      1
   108   104   108      1
   109   104   109      1
   110   109   110      1
   111   109   111      1
   112   109   112      1
   113   110   113      1
   114   110   114      1
   115   110   115      1
   116   115   116      1
   117   115   117      1
   118   115   118      1
   119   116   119      1
   120   116   120      1
   121   116   121      1
   122   121   122      1
   123   121   123      1
   124   121   124      1
   125   122   125      1
   126   122   126      1
   127   122   127      1
   128   127   128      1
   129   127   129      1
   130   127   130      1
   131   128   131      1
   132   128   132      1
   133   128   133      1
   134   133   134      1
   135   133   135      1
   136   133   136      1
   137   134   137      1
   138   134   138      1
   139   134   139      1
   140   139   140      1
   141   139   141      1
   142   139   142      1
   143   140   143      1
   144   140   144      1
   145   140   145      1
   146   145   146      1
   147   145   147      1
   148   145   148      1
   149   146   149      1
   150   146   150      1
   151   146   151      1
   152   151   152      1
   153   151   153      1
   154   151   154      1
   155   152   155      1
   156   152   156      1
   157   152   157      1
   158   157   158      1
   159   157   159      1
   160   157   160      1
   161   158   161      1
   162   158   162      1
   163   158   163      1
   164   163   164      1
   165   163   165      1
   166   163   166      1
   167   164   167      1
   168   164   168      1
   169   164   169      1
   170   169   170      1
   171   169   171      1
   172   169   172      1
   173   170   173      1
   174   170   174      1
   175   170   175      1
   176   175   176      1
   177   175   177      1
   178   175   178      1
   179   176   179      1
   180   176   180      1
   181   176   181      1
   182   181   182      1
   183   181   183      1
   184   181   184      1
   185   182   185      1
   186   182   186      1
   187   182   187      1
   188   187   188      1
   189   187   189      1
   190   187   190      1
   191   188   191      1
   192   188   192      1
   193   188   193      1
   194   193   194      1
   195   193   195      1
   196   193   196      1
   197   194   197      1
   198   194   198      1
   199   194   199      1
   200   199   200      1
   201   199   201      1
   202   199   202      1
   203   200   203      1
   204   200   204      1
   205   200   205      1
   206   205   206      1
   207   205   207      1
   208   205   208      1
   209   206   209      1
   210   206   210      1
   211   206   211      1
   212   211   212      1
   213   211   213      1
   214   211   214      1
   215   212   215      1
   216   212   216      1
   217   212   217      1
   218   217   218      1
   219   217   219      1
   220   217   220      1
   221   218   221      1
   222   218   222      1
   223   218   223      1
   224   223   224      1
   225   223   225      1
   226   223   226      1
   227   224   227      1
   228   224   228      1
   229   224   229      1
   230   229   230      1
   231   229   231      1
   232   229   232      1
   233   230   233      1
   234   230   234      1
   235   230   235      1
   236   235   236      1
   237   235   237      1
   238   235   238      1
   239   236   239      1
   240   236   240      1
   241   236   241      1
   242   241   242      1
   243   241   243      1
   244   241   244      1
   245   242   245      1
   246   242   246      1
   247   242   247      1
   248   247   248      1
   249   247   249      1
   250   247   250      1
   251   248   251      1
   252   248   252      1
   253   248   253      1
   254   253   254      1
   255   253   255      1
   256   253   256      1
   257   254   257      1
   258   254   258      1
   259   254   259      1
   260   259   260      1
   261   259   261      1
   262   259   262      1
   263   260   263      1
   264   260   264      1
   265   260   265      1
   266   265   266      1
   267   265   267      1
   268   265   268      1
   269   266   269      1
   270   266   270      1
   271   266   271      1
   272   271   272      1
   273   271   273      1
   274   271   274      1
   275   272   275      1
   276   272   276      1
   277   272   277      1
   278   277   278      1
   279   277   279      1
   280   277   280      1
   281   278   281      1
   282   278   282      1
   283   278   283      1
   284   283   284      1
   285   283   285      1
   286   283   286      1
   287   284   287      1
   288   284   288      1
   289   284   289      H
