###
### Created by PolyChef-cpp17 on Thu Feb 27 19:40:29 2025
###

@<TRIPOS>MOLECULE
NO_INFO
1322 1321 1 0 0
SMALL
USER_CHARGES


@<TRIPOS>ATOM
      1 C          -0.7202   35.8687  -39.3449 C.3       0        0    0.0000
      2 C          -2.1294   35.7082  -38.7641 C.3       0        0    0.0000
      3 H          -0.0729   35.0566  -38.9913 H         0        0    0.0000
      4 H          -0.2720   36.8055  -38.9913 H         0        0    0.0000
      5 H          -2.6276   36.6841  -38.7105 H         0        0    0.0000
      6 H          -2.7391   35.0791  -39.4245 H         0        0    0.0000
      7 C          -2.1128   35.0701  -37.3323 C.3       1        0    0.0000
      8 C          -0.8352   35.4133  -36.5583 C.3       1        0    0.0000
      9 H          -2.9931   35.4199  -36.7790 H         1        0    0.0000
     10 H          -2.2132   33.9819  -37.4289 H         1        0    0.0000
     11 H           0.0453   35.2373  -37.1887 H         1        0    0.0000
     12 H          -0.8281   36.4789  -36.2976 H         1        0    0.0000
     13 C          -0.6922   34.5706  -35.2442 C.3       2        0    0.0000
     14 C           0.2053   35.2570  -34.2087 C.3       2        0    0.0000
     15 H          -1.6908   34.4005  -34.8228 H         2        0    0.0000
     16 H          -0.2858   33.5840  -35.4992 H         2        0    0.0000
     17 H           1.2599   35.1344  -34.4848 H         2        0    0.0000
     18 H           0.0066   36.3359  -34.1949 H         2        0    0.0000
     19 C          -0.0088   34.6853  -32.7648 C.3       3        0    0.0000
     20 C           0.6203   35.5764  -31.6881 C.3       3        0    0.0000
     21 H          -1.0854   34.5785  -32.5828 H         3        0    0.0000
     22 H           0.4204   33.6769  -32.7165 H         3        0    0.0000
     23 H           1.7095   35.6079  -31.8152 H         3        0    0.0000
     24 H           0.2607   36.6072  -31.7956 H         3        0    0.0000
     25 C           0.2950   35.0763  -30.2384 C.3       4        0    0.0000
     26 C           0.9005   35.9833  -29.1615 C.3       4        0    0.0000
     27 H          -0.7943   35.0250  -30.1182 H         4        0    0.0000
     28 H           0.6730   34.0527  -30.1243 H         4        0    0.0000
     29 H           1.9903   36.0303  -29.2785 H         4        0    0.0000
     30 H           0.5266   37.0079  -29.2789 H         4        0    0.0000
     31 C           0.5688   35.4874  -27.7119 C.3       5        0    0.0000
     32 C           1.1691   36.3979  -26.6350 C.3       5        0    0.0000
     33 H          -0.5209   35.4360  -27.5964 H         5        0    0.0000
     34 H           0.9468   34.4644  -27.5930 H         5        0    0.0000
     35 H           2.2589   36.4485  -26.7499 H         5        0    0.0000
     36 H           0.7918   37.4211  -26.7544 H         5        0    0.0000
     37 C           0.8363   35.9027  -25.1853 C.3       6        0    0.0000
     38 C           1.4628   36.7954  -24.1084 C.3       6        0    0.0000
     39 H          -0.2535   35.8740  -25.0628 H         6        0    0.0000
     40 H           1.1932   34.8713  -25.0733 H         6        0    0.0000
     41 H           2.5522   36.8279  -24.2338 H         6        0    0.0000
     42 H           1.1023   37.8257  -24.2174 H         6        0    0.0000
     43 C           1.1358   36.2963  -22.6588 C.3       7        0    0.0000
     44 C           1.0507   37.4494  -21.6528 C.3       7        0    0.0000
     45 H           0.1875   35.7450  -22.6802 H         7        0    0.0000
     46 H           1.9084   35.5821  -22.3480 H         7        0    0.0000
     47 H           2.0330   37.9251  -21.5419 H         7        0    0.0000
     48 H           0.3664   38.2225  -22.0238 H         7        0    0.0000
     49 C           0.5580   36.9728  -20.2430 C.3       8        0    0.0000
     50 C           1.5103   37.3991  -19.1203 C.3       8        0    0.0000
     51 H          -0.4439   37.3814  -20.0618 H         8        0    0.0000
     52 H           0.4555   35.8807  -20.2549 H         8        0    0.0000
     53 H           2.5491   37.3523  -19.4701 H         8        0    0.0000
     54 H           1.3188   38.4424  -18.8404 H         8        0    0.0000
     55 C           1.3656   36.4991  -17.8449 C.3       9        0    0.0000
     56 C           1.0785   37.3211  -16.5835 C.3       9        0    0.0000
     57 H           0.5594   35.7744  -18.0131 H         9        0    0.0000
     58 H           2.2880   35.9197  -17.7145 H         9        0    0.0000
     59 H           1.9922   37.8275  -16.2485 H         9        0    0.0000
     60 H           0.3460   38.1070  -16.8053 H         9        0    0.0000
     61 C           0.5316   36.4371  -15.4101 C.3      10        0    0.0000
     62 C           0.9593   36.9658  -14.0365 C.3      10        0    0.0000
     63 H          -0.5629   36.4009  -15.4751 H        10        0    0.0000
     64 H           0.8894   35.4089  -15.5455 H        10        0    0.0000
     65 H           2.0420   37.1422  -14.0218 H        10        0    0.0000
     66 H           0.4799   37.9327  -13.8397 H        10        0    0.0000
     67 C           0.5929   35.9751  -12.8782 C.3      11        0    0.0000
     68 C           0.8374   36.5846  -11.4934 C.3      11        0    0.0000
     69 H          -0.4601   35.6849  -12.9809 H        11        0    0.0000
     70 H           1.1850   35.0591  -12.9959 H        11        0    0.0000
     71 H           1.8985   36.8369  -11.3755 H        11        0    0.0000
     72 H           0.2774   37.5224  -11.3910 H        11        0    0.0000
     73 C           0.4167   35.6157  -10.3351 C.3      12        0    0.0000
     74 C           0.6770   36.2185   -8.9502 C.3      12        0    0.0000
     75 H          -0.6475   35.3733  -10.4459 H        12        0    0.0000
     76 H           0.9675   34.6734  -10.4448 H        12        0    0.0000
     77 H           1.7406   36.4637   -8.8406 H        12        0    0.0000
     78 H           0.1238   37.1594   -8.8395 H        12        0    0.0000
     79 C           0.2602   35.2480   -7.7919 C.3      13        0    0.0000
     80 C           0.5168   35.8523   -6.4070 C.3      13        0    0.0000
     81 H          -0.8028   35.0004   -7.9032 H        13        0    0.0000
     82 H           0.8156   34.3082   -7.9010 H        13        0    0.0000
     83 H           1.5805   36.0959   -6.2941 H        13        0    0.0000
     84 H          -0.0352   36.7943   -6.2996 H        13        0    0.0000
     85 C           0.0943   34.8842   -5.2487 C.3      14        0    0.0000
     86 C           0.3173   35.5027   -3.8643 C.3      14        0    0.0000
     87 H          -0.9626   34.6197   -5.3767 H        14        0    0.0000
     88 H           0.6657   33.9522   -5.3408 H        14        0    0.0000
     89 H           1.3745   35.7662   -3.7358 H        14        0    0.0000
     90 H          -0.2531   36.4353   -3.7726 H        14        0    0.0000
     91 C          -0.1066   34.5352   -2.7060 C.3      15        0    0.0000
     92 C           0.2225   35.1062   -1.3223 C.3      15        0    0.0000
     93 H          -1.1830   34.3387   -2.7855 H        15        0    0.0000
     94 H           0.4005   33.5725   -2.8460 H        15        0    0.0000
     95 H           1.2596   35.4632   -1.2997 H        15        0    0.0000
     96 H          -0.4142   35.9747   -1.1126 H        15        0    0.0000
     97 C           0.0271   34.0491   -0.1814 C.3      16        0    0.0000
     98 C           0.5754   34.5380    1.1637 C.3      16        0    0.0000
     99 H          -1.0419   33.8200   -0.0910 H        16        0    0.0000
    100 H           0.5255   33.1166   -0.4743 H        16        0    0.0000
    101 H          -0.1349   34.3049    1.9666 H        16        0    0.0000
    102 H           1.5069   34.0108    1.4042 H        16        0    0.0000
    103 C           0.8528   36.0809    1.1667 C.3      17        0    0.0000
    104 C           1.8862   36.4832    2.2246 C.3      17        0    0.0000
    105 H           1.1993   36.3798    0.1696 H        17        0    0.0000
    106 H          -0.0920   36.6097    1.3435 H        17        0    0.0000
    107 H           1.3788   36.8348    3.1315 H        17        0    0.0000
    108 H           2.4848   35.6114    2.5164 H        17        0    0.0000
    109 C           2.8498   37.6101    1.7156 C.3      18        0    0.0000
    110 C           3.6756   38.2249    2.8509 C.3      18        0    0.0000
    111 H           3.5152   37.1882    0.9522 H        18        0    0.0000
    112 H           2.2545   38.3871    1.2200 H        18        0    0.0000
    113 H           3.0282   38.4509    3.7073 H        18        0    0.0000
    114 H           4.4246   37.5051    3.2037 H        18        0    0.0000
    115 C           4.4068   39.5394    2.4094 C.3      19        0    0.0000
    116 C           4.6899   40.4719    3.5922 C.3      19        0    0.0000
    117 H           5.3454   39.2709    1.9089 H        19        0    0.0000
    118 H           3.7885   40.0545    1.6638 H        19        0    0.0000
    119 H           3.7938   40.5691    4.2176 H        19        0    0.0000
    120 H           5.4738   40.0440    4.2294 H        19        0    0.0000
    121 C           5.1396   41.9002    3.1283 C.3      20        0    0.0000
    122 C           5.2300   42.8886    4.2962 C.3      20        0    0.0000
    123 H           6.1124   41.8195    2.6277 H        20        0    0.0000
    124 H           4.4289   42.2684    2.3781 H        20        0    0.0000
    125 H           4.2794   42.9124    4.8433 H        20        0    0.0000
    126 H           5.9958   42.5591    5.0094 H        20        0    0.0000
    127 C           5.5753   44.3415    3.8196 C.3      21        0    0.0000
    128 C           5.5659   45.3493    4.9743 C.3      21        0    0.0000
    129 H           6.5607   44.3308    3.3376 H        21        0    0.0000
    130 H           4.8522   44.6429    3.0515 H        21        0    0.0000
    131 H           6.4012   45.1476    5.6563 H        21        0    0.0000
    132 H           5.7131   46.3655    4.5879 H        21        0    0.0000
    133 C           4.2271   45.3073    5.7887 C.3      22        0    0.0000
    134 C           4.2953   46.1566    7.0627 C.3      22        0    0.0000
    135 H           3.4108   45.6589    5.1455 H        22        0    0.0000
    136 H           4.0007   44.2645    6.0434 H        22        0    0.0000
    137 H           4.4025   47.2170    6.8026 H        22        0    0.0000
    138 H           3.3593   46.0637    7.6272 H        22        0    0.0000
    139 C           5.4884   45.7408    7.9906 C.3      23        0    0.0000
    140 C           5.6239   46.6601    9.2095 C.3      23        0    0.0000
    141 H           5.3384   44.7040    8.3163 H        23        0    0.0000
    142 H           6.4149   45.7557    7.4034 H        23        0    0.0000
    143 H           6.2695   46.1926    9.9633 H        23        0    0.0000
    144 H           6.1084   47.6006    8.9193 H        23        0    0.0000
    145 C           4.2375   46.9869    9.8642 C.3      24        0    0.0000
    146 C           4.3404   48.0919   10.9213 C.3      24        0    0.0000
    147 H           3.5355   47.2849    9.0756 H        24        0    0.0000
    148 H           3.8348   46.0714   10.3150 H        24        0    0.0000
    149 H           3.9192   49.0265   10.5306 H        24        0    0.0000
    150 H           3.7473   47.8240   11.8045 H        24        0    0.0000
    151 C           5.8208   48.3521   11.3666 C.3      25        0    0.0000
    152 C           5.9346   49.5235   12.3483 C.3      25        0    0.0000
    153 H           6.2182   47.4377   11.8244 H        25        0    0.0000
    154 H           6.4290   48.5480   10.4750 H        25        0    0.0000
    155 H           5.4712   49.2578   13.3065 H        25        0    0.0000
    156 H           6.9900   49.7378   12.5576 H        25        0    0.0000
    157 C           5.2536   50.8253   11.8015 C.3      26        0    0.0000
    158 C           5.4496   52.0214   12.7395 C.3      26        0    0.0000
    159 H           5.6680   51.0519   10.8113 H        26        0    0.0000
    160 H           4.1834   50.6310   11.6582 H        26        0    0.0000
    161 H           4.5702   52.1418   13.3843 H        26        0    0.0000
    162 H           6.3047   51.8428   13.4031 H        26        0    0.0000
    163 C           5.6884   53.3580   11.9560 C.3      27        0    0.0000
    164 C           5.9215   54.5475   12.8941 C.3      27        0    0.0000
    165 H           6.5512   53.2287   11.2910 H        27        0    0.0000
    166 H           4.8209   53.5506   11.3127 H        27        0    0.0000
    167 H           5.0014   54.7776   13.4454 H        27        0    0.0000
    168 H           6.6820   54.2928   13.6426 H        27        0    0.0000
    169 C           6.3825   55.8315   12.1220 C.3      28        0    0.0000
    170 C           6.6272   57.0176   13.0614 C.3      28        0    0.0000
    171 H           7.2977   55.5988   11.5636 H        28        0    0.0000
    172 H           5.6179   56.0913   11.3794 H        28        0    0.0000
    173 H           7.0960   57.8428   12.5111 H        28        0    0.0000
    174 H           5.6720   57.3971   13.4447 H        28        0    0.0000
    175 C           7.5427   56.6352   14.2751 C.3      29        0    0.0000
    176 C           7.6131   57.7507   15.3237 C.3      29        0    0.0000
    177 H           7.1590   55.7140   14.7310 H        29        0    0.0000
    178 H           8.5484   56.4064   13.9012 H        29        0    0.0000
    179 H           6.6270   58.2162   15.4445 H        29        0    0.0000
    180 H           7.8856   57.3322   16.3005 H        29        0    0.0000
    181 C           8.6523   58.8605   14.9417 C.3      30        0    0.0000
    182 C           8.7875   59.9295   16.0316 C.3      30        0    0.0000
    183 H           9.6243   58.3863   14.7573 H        30        0    0.0000
    184 H           8.3434   59.3239   13.9965 H        30        0    0.0000
    185 H           7.8312   60.0573   16.5539 H        30        0    0.0000
    186 H           9.5174   59.6084   16.7851 H        30        0    0.0000
    187 C           9.2360   61.3154   15.4521 C.3      31        0    0.0000
    188 C           9.4029   62.3758   16.5460 C.3      31        0    0.0000
    189 H          10.1802   61.1829   14.9095 H        31        0    0.0000
    190 H           8.4935   61.6478   14.7161 H        31        0    0.0000
    191 H           8.4533   62.5229   17.0753 H        31        0    0.0000
    192 H          10.1303   62.0345   17.2929 H        31        0    0.0000
    193 C           9.8789   63.7538   15.9699 C.3      32        0    0.0000
    194 C          10.0760   64.8054   17.0674 C.3      32        0    0.0000
    195 H          10.8166   63.6027   15.4209 H        32        0    0.0000
    196 H           9.1397   64.1062   15.2398 H        32        0    0.0000
    197 H           9.1027   65.1712   17.4170 H        32        0    0.0000
    198 H          10.5734   64.3547   17.9351 H        32        0    0.0000
    199 C          10.9273   66.0260   16.5746 C.3      33        0    0.0000
    200 C          11.5153   66.8317   17.7383 C.3      33        0    0.0000
    201 H          11.7328   65.6572   15.9275 H        33        0    0.0000
    202 H          10.2940   66.6708   15.9527 H        33        0    0.0000
    203 H          10.7421   67.4717   18.1812 H        33        0    0.0000
    204 H          11.8554   66.1540   18.5311 H        33        0    0.0000
    205 C          12.7193   67.7301   17.2904 C.3      34        0    0.0000
    206 C          13.6292   68.1094   18.4640 C.3      34        0    0.0000
    207 H          13.2953   67.1940   16.5259 H        34        0    0.0000
    208 H          12.3261   68.6354   16.8114 H        34        0    0.0000
    209 H          13.1027   68.7917   19.1428 H        34        0    0.0000
    210 H          13.8813   67.2159   19.0485 H        34        0    0.0000
    211 C          14.9571   68.7939   17.9892 C.3      35        0    0.0000
    212 C          15.8698   69.1673   19.1625 C.3      35        0    0.0000
    213 H          15.4812   68.1134   17.3067 H        35        0    0.0000
    214 H          14.7051   69.6900   17.4087 H        35        0    0.0000
    215 H          15.3454   69.8471   19.8454 H        35        0    0.0000
    216 H          16.1225   68.2711   19.7426 H        35        0    0.0000
    217 C          17.1973   69.8527   18.6877 C.3      36        0    0.0000
    218 C          18.1091   70.2281   19.8611 C.3      36        0    0.0000
    219 H          17.7225   69.1722   18.0060 H        36        0    0.0000
    220 H          16.9447   70.7481   18.1063 H        36        0    0.0000
    221 H          17.5844   70.9098   20.5420 H        36        0    0.0000
    222 H          18.3605   69.3330   20.4434 H        36        0    0.0000
    223 C          19.4375   70.9116   19.3862 C.3      37        0    0.0000
    224 C          20.2923   71.3989   20.5614 C.3      37        0    0.0000
    225 H          20.0058   70.1962   18.7789 H        37        0    0.0000
    226 H          19.1867   71.7534   18.7290 H        37        0    0.0000
    227 H          19.7148   72.0934   21.1840 H        37        0    0.0000
    228 H          20.5659   70.5528   21.2038 H        37        0    0.0000
    229 C          21.6023   72.1165   20.0857 C.3      38        0    0.0000
    230 C          21.8519   73.4283   20.8380 C.3      38        0    0.0000
    231 H          22.4502   71.4348   20.2269 H        38        0    0.0000
    232 H          21.5289   72.3089   19.0082 H        38        0    0.0000
    233 H          20.9186   73.9992   20.9185 H        38        0    0.0000
    234 H          22.1817   73.2174   21.8628 H        38        0    0.0000
    235 C          22.9310   74.3210   20.1336 C.3      39        0    0.0000
    236 C          24.1417   74.5884   21.0346 C.3      39        0    0.0000
    237 H          23.2522   73.8246   19.2095 H        39        0    0.0000
    238 H          22.4664   75.2694   19.8367 H        39        0    0.0000
    239 H          24.0173   75.5445   21.5580 H        39        0    0.0000
    240 H          24.2139   73.8132   21.8075 H        39        0    0.0000
    241 C          25.4857   74.6248   20.2284 C.3      40        0    0.0000
    242 C          26.7138   74.5704   21.1438 C.3      40        0    0.0000
    243 H          25.5009   73.7806   19.5280 H        40        0    0.0000
    244 H          25.5092   75.5383   19.6213 H        40        0    0.0000
    245 H          26.7560   75.4699   21.7705 H        40        0    0.0000
    246 H          26.6370   73.7146   21.8258 H        40        0    0.0000
    247 C          28.0522   74.4542   20.3359 C.3      41        0    0.0000
    248 C          29.2688   74.2740   21.2505 C.3      41        0    0.0000
    249 H          27.9743   73.6078   19.6424 H        41        0    0.0000
    250 H          28.1736   75.3549   19.7214 H        41        0    0.0000
    251 H          29.3483   75.1218   21.9422 H        41        0    0.0000
    252 H          29.1462   73.3749   21.8669 H        41        0    0.0000
    253 C          30.6068   74.1541   20.4425 C.3      42        0    0.0000
    254 C          31.8417   74.2933   21.3396 C.3      42        0    0.0000
    255 H          30.6233   73.1855   19.9275 H        42        0    0.0000
    256 H          30.6195   74.9257   19.6627 H        42        0    0.0000
    257 H          31.7489   75.1854   21.9714 H        42        0    0.0000
    258 H          31.9133   73.4335   22.0172 H        42        0    0.0000
    259 C          33.1689   74.3962   20.5118 C.3      43        0    0.0000
    260 C          34.3214   74.9849   21.3329 C.3      43        0    0.0000
    261 H          33.4378   73.3964   20.1490 H        43        0    0.0000
    262 H          32.9851   75.0145   19.6244 H        43        0    0.0000
    263 H          33.9909   75.8969   21.8453 H        43        0    0.0000
    264 H          34.6263   74.2776   22.1142 H        43        0    0.0000
    265 C          35.5683   75.3270   20.4465 C.3      44        0    0.0000
    266 C          36.5656   76.2362   21.1729 C.3      44        0    0.0000
    267 H          36.0589   74.3915   20.1502 H        44        0    0.0000
    268 H          35.2241   75.8084   19.5228 H        44        0    0.0000
    269 H          36.0424   77.0972   21.6072 H        44        0    0.0000
    270 H          37.0289   75.6954   22.0074 H        44        0    0.0000
    271 C          37.6954   76.7594   20.2205 C.3      45        0    0.0000
    272 C          38.3867   78.0112   20.7721 C.3      45        0    0.0000
    273 H          38.4304   75.9589   20.0707 H        45        0    0.0000
    274 H          37.2581   76.9736   19.2374 H        45        0    0.0000
    275 H          37.6370   78.7572   21.0637 H        45        0    0.0000
    276 H          38.9510   77.7606   21.6788 H        45        0    0.0000
    277 C          39.3643   78.6575   19.7309 C.3      46        0    0.0000
    278 C          40.2549   79.7341   20.3610 C.3      46        0    0.0000
    279 H          39.9843   77.8671   19.2900 H        46        0    0.0000
    280 H          38.7746   79.0888   18.9125 H        46        0    0.0000
    281 H          39.6507   80.6063   20.6398 H        46        0    0.0000
    282 H          40.7063   79.3548   21.2861 H        46        0    0.0000
    283 C          41.3983   80.1995   19.3947 C.3      47        0    0.0000
    284 C          42.5670   80.8459   20.1466 C.3      47        0    0.0000
    285 H          41.7523   79.3330   18.8226 H        47        0    0.0000
    286 H          40.9808   80.9075   18.6681 H        47        0    0.0000
    287 H          43.3321   81.1815   19.4356 H        47        0    0.0000
    288 H          42.2217   81.7387   20.6825 H        47        0    0.0000
    289 C          43.2281   79.8638   21.1742 C.3      48        0    0.0000
    290 C          44.3821   80.5174   21.9425 C.3      48        0    0.0000
    291 H          42.4594   79.5152   21.8750 H        48        0    0.0000
    292 H          43.5884   78.9785   20.6358 H        48        0    0.0000
    293 H          45.2697   80.5859   21.3014 H        48        0    0.0000
    294 H          44.1147   81.5443   22.2210 H        48        0    0.0000
    295 C          44.7566   79.7230   23.2409 C.3      49        0    0.0000
    296 C          46.0916   80.1819   23.8378 C.3      49        0    0.0000
    297 H          43.9526   79.8487   23.9767 H        49        0    0.0000
    298 H          44.7997   78.6534   23.0010 H        49        0    0.0000
    299 H          46.8821   80.1253   23.0792 H        49        0    0.0000
    300 H          46.0248   81.2328   24.1453 H        49        0    0.0000
    301 C          46.5167   79.3192   25.0758 C.3      50        0    0.0000
    302 C          47.8979   79.7125   25.6111 C.3      50        0    0.0000
    303 H          45.7614   79.4343   25.8631 H        50        0    0.0000
    304 H          46.5124   78.2607   24.7875 H        50        0    0.0000
    305 H          48.6377   79.6820   24.8016 H        50        0    0.0000
    306 H          47.8780   80.7451   25.9809 H        50        0    0.0000
    307 C          48.3767   78.7703   26.7689 C.3      51        0    0.0000
    308 C          49.8642   78.9537   27.0895 C.3      51        0    0.0000
    309 H          47.7718   78.9717   27.6617 H        51        0    0.0000
    310 H          48.1791   77.7298   26.4827 H        51        0    0.0000
    311 H          50.3773   79.4208   26.2398 H        51        0    0.0000
    312 H          49.9841   79.6334   27.9423 H        51        0    0.0000
    313 C          50.5720   77.5953   27.4227 C.3      52        0    0.0000
    314 C          52.0968   77.7357   27.4890 C.3      52        0    0.0000
    315 H          50.1868   77.2211   28.3794 H        52        0    0.0000
    316 H          50.2951   76.8561   26.6609 H        52        0    0.0000
    317 H          52.4614   78.2932   26.6173 H        52        0    0.0000
    318 H          52.3830   78.3150   28.3756 H        52        0    0.0000
    319 C          52.8199   76.3457   27.5384 C.3      53        0    0.0000
    320 C          54.3449   76.4861   27.5989 C.3      53        0    0.0000
    321 H          52.4583   75.7899   28.4124 H        53        0    0.0000
    322 H          52.5304   75.7649   26.6539 H        53        0    0.0000
    323 H          54.7319   75.9993   28.5027 H        53        0    0.0000
    324 H          54.8040   75.9742   26.7441 H        53        0    0.0000
    325 C          54.8041   77.9850   27.5964 C.3      54        0    0.0000
    326 C          56.2767   78.1420   27.9910 C.3      54        0    0.0000
    327 H          54.6356   78.4047   26.5969 H        54        0    0.0000
    328 H          54.1671   78.5511   28.2872 H        54        0    0.0000
    329 H          56.5671   77.3442   28.6858 H        54        0    0.0000
    330 H          56.9165   78.0373   27.1059 H        54        0    0.0000
    331 C          56.5671   79.5281   28.6632 C.3      55        0    0.0000
    332 C          58.0461   79.6985   29.0275 C.3      55        0    0.0000
    333 H          56.2540   80.3258   27.9783 H        55        0    0.0000
    334 H          55.9451   79.6224   29.5620 H        55        0    0.0000
    335 H          58.3602   78.8985   29.7093 H        55        0    0.0000
    336 H          58.6678   79.6081   28.1281 H        55        0    0.0000
    337 C          58.3354   81.0823   29.7049 C.3      56        0    0.0000
    338 C          59.6951   81.1100   30.4117 C.3      56        0    0.0000
    339 H          58.2936   81.8666   28.9389 H        56        0    0.0000
    340 H          57.5342   81.2993   30.4221 H        56        0    0.0000
    341 H          59.7559   80.2940   31.1424 H        56        0    0.0000
    342 H          60.5001   80.9430   29.6853 H        56        0    0.0000
    343 C          59.9538   82.4689   31.1491 C.3      57        0    0.0000
    344 C          61.4274   82.6526   31.5284 C.3      57        0    0.0000
    345 H          59.6271   83.2911   30.5003 H        57        0    0.0000
    346 H          59.3262   82.5085   32.0480 H        57        0    0.0000
    347 H          61.7269   81.8875   32.2553 H        57        0    0.0000
    348 H          62.0632   82.5142   30.6452 H        57        0    0.0000
    349 C          61.7117   84.0683   32.1388 C.3      58        0    0.0000
    350 C          63.2051   84.4127   32.1362 C.3      58        0    0.0000
    351 H          61.1516   84.8188   31.5673 H        58        0    0.0000
    352 H          61.3209   84.0965   33.1635 H        58        0    0.0000
    353 H          63.7466   83.7438   32.8167 H        58        0    0.0000
    354 H          63.6263   84.2527   31.1359 H        58        0    0.0000
    355 C          63.4735   85.8961   32.5661 C.3      59        0    0.0000
    356 C          64.9464   86.2894   32.4078 C.3      59        0    0.0000
    357 H          62.8403   86.5590   31.9635 H        59        0    0.0000
    358 H          63.1601   86.0241   33.6096 H        59        0    0.0000
    359 H          65.5799   85.6239   33.0072 H        59        0    0.0000
    360 H          65.2587   86.1653   31.3634 H        59        0    0.0000
    361 C          65.2158   87.7710   32.8431 C.3      60        0    0.0000
    362 C          66.7129   88.0875   32.9310 C.3      60        0    0.0000
    363 H          64.7305   88.4442   32.1256 H        60        0    0.0000
    364 H          64.7365   87.9470   33.8141 H        60        0    0.0000
    365 H          67.2886   87.1588   33.0288 H        60        0    0.0000
    366 H          67.0500   88.5712   32.0058 H        60        0    0.0000
    367 C          67.0523   89.0225   34.1426 C.3      61        0    0.0000
    368 C          68.5556   89.0679   34.4379 C.3      61        0    0.0000
    369 H          66.6810   90.0317   33.9253 H        61        0    0.0000
    370 H          66.5059   88.6692   35.0258 H        61        0    0.0000
    371 H          69.0940   89.4961   33.5834 H        61        0    0.0000
    372 H          68.7509   89.7247   35.2946 H        61        0    0.0000
    373 C          69.1437   87.6477   34.7456 C.3      62        0    0.0000
    374 C          70.6584   87.6839   34.9766 C.3      62        0    0.0000
    375 H          68.6380   87.2394   35.6294 H        62        0    0.0000
    376 H          68.9067   86.9781   33.9095 H        62        0    0.0000
    377 H          71.1487   88.2436   34.1704 H        62        0    0.0000
    378 H          70.8839   88.2139   35.9103 H        62        0    0.0000
    379 C          71.2831   86.2479   35.0472 C.3      63        0    0.0000
    380 C          72.7774   86.2805   35.3867 C.3      63        0    0.0000
    381 H          70.7393   85.6623   35.7988 H        63        0    0.0000
    382 H          71.1271   85.7466   34.0840 H        63        0    0.0000
    383 H          73.3325   86.7943   34.5921 H        63        0    0.0000
    384 H          72.9415   86.8542   36.3073 H        63        0    0.0000
    385 C          73.3757   84.8436   35.5733 C.3      64        0    0.0000
    386 C          74.8989   84.8222   35.4041 C.3      64        0    0.0000
    387 H          73.1027   84.4734   36.5692 H        64        0    0.0000
    388 H          72.9071   84.1684   34.8467 H        64        0    0.0000
    389 H          75.1861   85.3893   34.5100 H        64        0    0.0000
    390 H          75.3792   85.3160   36.2580 H        64        0    0.0000
    391 C          75.4625   83.3647   35.2807 C.3      65        0    0.0000
    392 C          76.8263   83.3265   34.5822 C.3      65        0    0.0000
    393 H          75.5419   82.9300   36.2848 H        65        0    0.0000
    394 H          74.7397   82.7516   34.7283 H        65        0    0.0000
    395 H          76.8428   84.0411   33.7500 H        65        0    0.0000
    396 H          77.6147   83.6364   35.2793 H        65        0    0.0000
    397 C          77.1715   81.9003   34.0306 C.3      66        0    0.0000
    398 C          78.4724   81.8901   33.2204 C.3      66        0    0.0000
    399 H          77.2485   81.2038   34.8747 H        66        0    0.0000
    400 H          76.3382   81.5505   33.4086 H        66        0    0.0000
    401 H          78.8354   80.8613   33.1046 H        66        0    0.0000
    402 H          78.2891   82.2750   32.2096 H        66        0    0.0000
    403 C          79.5976   82.7503   33.8923 C.3      67        0    0.0000
    404 C          80.9304   82.6515   33.1421 C.3      67        0    0.0000
    405 H          79.2662   83.7953   33.9344 H        67        0    0.0000
    406 H          79.7245   82.4181   34.9301 H        67        0    0.0000
    407 H          80.8471   83.1367   32.1617 H        67        0    0.0000
    408 H          81.7130   83.1875   33.6934 H        67        0    0.0000
    409 C          81.3862   81.1661   32.9337 C.3      68        0    0.0000
    410 C          82.6487   81.0615   32.0711 C.3      68        0    0.0000
    411 H          81.5624   80.7093   33.9154 H        68        0    0.0000
    412 H          80.5653   80.6064   32.4685 H        68        0    0.0000
    413 H          82.3759   80.8600   31.0278 H        68        0    0.0000
    414 H          83.1883   82.0167   32.0767 H        68        0    0.0000
    415 C          83.6156   79.9320   32.5678 C.3      69        0    0.0000
    416 C          85.0419   80.1133   32.0367 C.3      69        0    0.0000
    417 H          83.6205   79.9278   33.6649 H        69        0    0.0000
    418 H          83.2168   78.9604   32.2508 H        69        0    0.0000
    419 H          85.1883   79.5037   31.1364 H        69        0    0.0000
    420 H          85.2030   81.1571   31.7401 H        69        0    0.0000
    421 C          86.1257   79.7163   33.0975 C.3      70        0    0.0000
    422 C          87.2008   80.7963   33.2616 C.3      70        0    0.0000
    423 H          85.6292   79.5308   34.0580 H        70        0    0.0000
    424 H          86.5877   78.7688   32.7935 H        70        0    0.0000
    425 H          88.0788   80.5488   32.6522 H        70        0    0.0000
    426 H          86.8249   81.7599   32.8958 H        70        0    0.0000
    427 C          87.6521   80.9635   34.7535 C.3      71        0    0.0000
    428 C          89.0359   81.6115   34.8726 C.3      71        0    0.0000
    429 H          86.9062   81.5694   35.2828 H        71        0    0.0000
    430 H          87.6557   79.9775   35.2344 H        71        0    0.0000
    431 H          89.6906   81.2506   34.0697 H        71        0    0.0000
    432 H          88.9543   82.6984   34.7481 H        71        0    0.0000
    433 C          89.7159   81.3107   36.2527 C.3      72        0    0.0000
    434 C          91.2265   81.0883   36.1197 C.3      72        0    0.0000
    435 H          89.5174   82.1469   36.9345 H        72        0    0.0000
    436 H          89.2428   80.4249   36.6944 H        72        0    0.0000
    437 H          91.4635   80.7037   35.1200 H        72        0    0.0000
    438 H          91.7578   82.0425   36.2242 H        72        0    0.0000
    439 C          91.7758   80.0842   37.1908 C.3      73        0    0.0000
    440 C          93.2944   79.9022   37.0915 C.3      73        0    0.0000
    441 H          91.5052   80.4492   38.1893 H        73        0    0.0000
    442 H          91.2720   79.1183   37.0612 H        73        0    0.0000
    443 H          93.6566   79.2979   37.9325 H        73        0    0.0000
    444 H          93.5485   79.3530   36.1765 H        73        0    0.0000
    445 C          94.0578   81.2714   37.0874 C.3      74        0    0.0000
    446 C          95.5714   81.0930   37.2498 C.3      74        0    0.0000
    447 H          93.8393   81.7952   36.1486 H        74        0    0.0000
    448 H          93.6639   81.8983   37.8970 H        74        0    0.0000
    449 H          95.8609   80.0703   36.9782 H        74        0    0.0000
    450 H          96.1048   81.7639   36.5650 H        74        0    0.0000
    451 C          96.0498   81.3816   38.7145 C.3      75        0    0.0000
    452 C          97.5777   81.4106   38.8314 C.3      75        0    0.0000
    453 H          95.6293   82.3406   39.0414 H        75        0    0.0000
    454 H          95.6362   80.6132   39.3794 H        75        0    0.0000
    455 H          97.9670   82.3588   38.4402 H        75        0    0.0000
    456 H          97.8754   81.3589   39.8860 H        75        0    0.0000
    457 C          98.2554   80.2282   38.0566 C.3      76        0    0.0000
    458 C          99.7704   80.1780   38.2831 C.3      76        0    0.0000
    459 H          97.7956   79.2853   38.3779 H        76        0    0.0000
    460 H          98.0383   80.3360   36.9867 H        76        0    0.0000
    461 H         100.2648   80.9611   37.6949 H        76        0    0.0000
    462 H         100.0003   80.3824   39.3361 H        76        0    0.0000
    463 C         100.3838   78.7893   37.8923 C.3      77        0    0.0000
    464 C         101.9109   78.8417   37.7730 C.3      77        0    0.0000
    465 H         100.0906   78.0484   38.6463 H        77        0    0.0000
    466 H          99.9433   78.4630   36.9420 H        77        0    0.0000
    467 H         102.2154   79.7487   37.2362 H        77        0    0.0000
    468 H         102.3644   78.8988   38.7703 H        77        0    0.0000
    469 C         102.4917   77.5927   37.0246 C.3      78        0    0.0000
    470 C         103.8437   77.8871   36.3656 C.3      78        0    0.0000
    471 H         102.5938   76.7675   37.7403 H        78        0    0.0000
    472 H         101.7677   77.2656   36.2680 H        78        0    0.0000
    473 H         104.5286   78.3353   37.0962 H        78        0    0.0000
    474 H         104.3096   76.9527   36.0291 H        78        0    0.0000
    475 C         103.7089   78.8547   35.1396 C.3      79        0    0.0000
    476 C         105.0690   79.2160   34.5325 C.3      79        0    0.0000
    477 H         103.0732   78.3794   34.3823 H        79        0    0.0000
    478 H         103.1876   79.7643   35.4627 H        79        0    0.0000
    479 H         104.9518   80.0265   33.8025 H        79        0    0.0000
    480 H         105.7421   79.5904   35.3136 H        79        0    0.0000
    481 C         105.7474   77.9928   33.8246 C.3      80        0    0.0000
    482 C         107.0802   78.3679   33.1673 C.3      80        0    0.0000
    483 H         105.9035   77.1980   34.5646 H        80        0    0.0000
    484 H         105.0567   77.5918   33.0725 H        80        0    0.0000
    485 H         107.8323   78.5813   33.9369 H        80        0    0.0000
    486 H         107.4611   77.5230   32.5803 H        80        0    0.0000
    487 C         106.9490   79.6168   32.2289 C.3      81        0    0.0000
    488 C         108.2941   80.0314   31.6224 C.3      81        0    0.0000
    489 H         106.2319   79.3862   31.4314 H        81        0    0.0000
    490 H         106.5236   80.4483   32.8044 H        81        0    0.0000
    491 H         108.1346   80.7520   30.8106 H        81        0    0.0000
    492 H         108.9071   80.5385   32.3778 H        81        0    0.0000
    493 C         109.0952   78.8066   31.0606 C.3      82        0    0.0000
    494 C         110.5769   79.1324   30.8425 C.3      82        0    0.0000
    495 H         108.9936   77.9670   31.7593 H        82        0    0.0000
    496 H         108.6372   78.4877   30.1161 H        82        0    0.0000
    497 H         110.6792   79.9589   30.1284 H        82        0    0.0000
    498 H         111.0301   79.4704   31.7826 H        82        0    0.0000
    499 C         111.3837   77.8995   30.3072 C.3      83        0    0.0000
    500 C         112.8408   78.2526   29.9891 C.3      83        0    0.0000
    501 H         111.3456   77.0994   31.0568 H        83        0    0.0000
    502 H         110.8855   77.5138   29.4091 H        83        0    0.0000
    503 H         112.8789   79.0647   29.2525 H        83        0    0.0000
    504 H         113.3440   78.6218   30.8914 H        83        0    0.0000
    505 C         113.6411   77.0258   29.4305 C.3      84        0    0.0000
    506 C         114.9798   76.8291   30.1504 C.3      84        0    0.0000
    507 H         113.0234   76.1248   29.5321 H        84        0    0.0000
    508 H         113.8095   77.1729   28.3565 H        84        0    0.0000
    509 H         115.7376   77.4987   29.7250 H        84        0    0.0000
    510 H         114.8805   77.0979   31.2093 H        84        0    0.0000
    511 C         115.4969   75.3526   30.0502 C.3      85        0    0.0000
    512 C         116.7452   75.2328   29.1691 C.3      85        0    0.0000
    513 H         115.7130   74.9842   31.0607 H        85        0    0.0000
    514 H         114.6925   74.7226   29.6505 H        85        0    0.0000
    515 H         116.6810   75.9347   28.3283 H        85        0    0.0000
    516 H         117.6385   75.5094   29.7427 H        85        0    0.0000
    517 C         116.9365   73.7833   28.6037 C.3      86        0    0.0000
    518 C         118.3525   73.2482   28.8442 C.3      86        0    0.0000
    519 H         116.1991   73.1204   29.0731 H        86        0    0.0000
    520 H         116.7146   73.7906   27.5293 H        86        0    0.0000
    521 H         119.0332   73.6243   28.0705 H        86        0    0.0000
    522 H         118.7347   73.6142   29.8051 H        86        0    0.0000
    523 C         118.4035   71.6814   28.8439 C.3      87        0    0.0000
    524 C         119.7465   71.1438   29.3504 C.3      87        0    0.0000
    525 H         117.5861   71.3008   29.4689 H        87        0    0.0000
    526 H         118.2146   71.3217   27.8248 H        87        0    0.0000
    527 H         120.5205   71.2847   28.5859 H        87        0    0.0000
    528 H         120.0691   71.7094   30.2333 H        87        0    0.0000
    529 C         119.6751   69.6228   29.7229 C.3      88        0    0.0000
    530 C         120.8859   69.1689   30.5458 C.3      88        0    0.0000
    531 H         118.7497   69.4388   30.2826 H        88        0    0.0000
    532 H         119.6066   69.0353   28.7990 H        88        0    0.0000
    533 H         120.8619   68.0806   30.6815 H        88        0    0.0000
    534 H         121.8139   69.3989   30.0077 H        88        0    0.0000
    535 C         120.9364   69.8529   31.9554 C.3      89        0    0.0000
    536 C         122.1151   69.3566   32.8000 C.3      89        0    0.0000
    537 H         121.0025   70.9394   31.8191 H        89        0    0.0000
    538 H         119.9913   69.6578   32.4771 H        89        0    0.0000
    539 H         122.8830   68.9159   32.1520 H        89        0    0.0000
    540 H         122.5872   70.1998   33.3193 H        89        0    0.0000
    541 C         121.6775   68.2900   33.8622 C.3      90        0    0.0000
    542 C         122.8366   67.8654   34.7706 C.3      90        0    0.0000
    543 H         120.8602   68.7056   34.4646 H        90        0    0.0000
    544 H         121.2702   67.4161   33.3388 H        90        0    0.0000
    545 H         122.4700   67.1996   35.5618 H        90        0    0.0000
    546 H         123.5755   67.2940   34.1954 H        90        0    0.0000
    547 C         123.5518   69.0926   35.4340 C.3      91        0    0.0000
    548 C         124.8357   68.6897   36.1676 C.3      91        0    0.0000
    549 H         123.7791   69.8321   34.6563 H        91        0    0.0000
    550 H         122.8549   69.5732   36.1318 H        91        0    0.0000
    551 H         125.6975   68.7797   35.4947 H        91        0    0.0000
    552 H         125.0190   69.3716   37.0072 H        91        0    0.0000
    553 C         124.7723   67.2216   36.7137 C.3      92        0    0.0000
    554 C         125.9955   66.8655   37.5658 C.3      92        0    0.0000
    555 H         123.8552   67.1032   37.3040 H        92        0    0.0000
    556 H         124.6916   66.5317   35.8645 H        92        0    0.0000
    557 H         125.8763   65.8626   37.9942 H        92        0    0.0000
    558 H         126.8950   66.8353   36.9385 H        92        0    0.0000
    559 C         126.2261   67.8885   38.7309 C.3      93        0    0.0000
    560 C         127.5230   67.6113   39.4991 C.3      93        0    0.0000
    561 H         126.2461   68.9024   38.3124 H        93        0    0.0000
    562 H         125.3682   67.8464   39.4135 H        93        0    0.0000
    563 H         128.3904   67.8248   38.8622 H        93        0    0.0000
    564 H         127.5968   68.2794   40.3661 H        93        0    0.0000
    565 C         127.6138   66.1272   39.9957 C.3      94        0    0.0000
    566 C         128.8463   65.8827   40.8732 C.3      94        0    0.0000
    567 H         126.7008   65.8845   40.5534 H        94        0    0.0000
    568 H         127.6357   65.4630   39.1228 H        94        0    0.0000
    569 H         128.5382   65.6796   41.9063 H        94        0    0.0000
    570 H         129.3857   64.9932   40.5247 H        94        0    0.0000
    571 C         129.8297   67.1035   40.8698 C.3      95        0    0.0000
    572 C         130.9663   66.9366   41.8844 C.3      95        0    0.0000
    573 H         130.2414   67.2231   39.8600 H        95        0    0.0000
    574 H         129.2613   68.0160   41.0884 H        95        0    0.0000
    575 H         131.6122   66.0997   41.5914 H        95        0    0.0000
    576 H         131.5976   67.8338   41.8930 H        95        0    0.0000
    577 C         130.4337   66.6796   43.3362 C.3      96        0    0.0000
    578 C         131.5686   66.5707   44.3605 C.3      96        0    0.0000
    579 H         129.7542   67.4952   43.6131 H        96        0    0.0000
    580 H         129.8373   65.7589   43.3363 H        96        0    0.0000
    581 H         131.4884   67.3787   45.0982 H        96        0    0.0000
    582 H         131.4853   65.6280   44.9154 H        96        0    0.0000
    583 C         132.9835   66.6383   43.6889 C.3      97        0    0.0000
    584 C         134.1047   66.8361   44.7150 C.3      97        0    0.0000
    585 H         133.1507   65.7137   43.1226 H        97        0    0.0000
    586 H         132.9906   67.4591   42.9610 H        97        0    0.0000
    587 H         133.6945   67.2466   45.6460 H        97        0    0.0000
    588 H         134.5568   65.8694   44.9692 H        97        0    0.0000
    589 C         135.2272   67.7966   44.1906 C.3      98        0    0.0000
    590 C         136.3481   67.9949   45.2170 C.3      98        0    0.0000
    591 H         135.6378   67.3858   43.2599 H        98        0    0.0000
    592 H         134.7751   68.7631   43.9360 H        98        0    0.0000
    593 H         137.3088   67.6814   44.7900 H        98        0    0.0000
    594 H         136.4462   69.0588   45.4660 H        98        0    0.0000
    595 C         136.0946   67.1881   46.5369 C.3      99        0    0.0000
    596 C         137.2920   67.2455   47.4919 C.3      99        0    0.0000
    597 H         135.2005   67.5891   47.0302 H        99        0    0.0000
    598 H         135.8704   66.1462   46.2769 H        99        0    0.0000
    599 H         138.1973   66.8943   46.9815 H        99        0    0.0000
    600 H         137.4829   68.2828   47.7939 H        99        0    0.0000
    601 C         137.0683   66.3778   48.7781 C.3     100        0    0.0000
    602 C         138.2867   66.3922   49.7077 C.3     100        0    0.0000
    603 H         136.1853   66.7542   49.3094 H       100        0    0.0000
    604 H         136.8385   65.3488   48.4749 H       100        0    0.0000
    605 H         139.1756   66.0421   49.1682 H       100        0    0.0000
    606 H         138.4995   67.4180   50.0332 H       100        0    0.0000
    607 C         138.0780   65.4931   50.9748 C.3     101        0    0.0000
    608 C         139.3276   65.4385   51.8605 C.3     101        0    0.0000
    609 H         137.2273   65.8819   51.5480 H       101        0    0.0000
    610 H         137.8030   64.4821   50.6495 H       101        0    0.0000
    611 H         140.1939   65.1167   51.2694 H       101        0    0.0000
    612 H         139.5616   66.4398   52.2430 H       101        0    0.0000
    613 C         139.1532   64.4619   53.0744 C.3     102        0    0.0000
    614 C         140.4111   64.3897   53.9471 C.3     102        0    0.0000
    615 H         138.2972   64.7937   53.6750 H       102        0    0.0000
    616 H         138.9025   63.4645   52.6926 H       102        0    0.0000
    617 H         141.2823   64.1349   53.3310 H       102        0    0.0000
    618 H         140.6165   65.3709   54.3928 H       102        0    0.0000
    619 C         140.2773   63.3310   55.0955 C.3     103        0    0.0000
    620 C         141.5364   63.2566   55.9664 C.3     103        0    0.0000
    621 H         139.4075   63.5872   55.7130 H       103        0    0.0000
    622 H         140.0696   62.3503   54.6499 H       103        0    0.0000
    623 H         142.4226   63.1168   55.3351 H       103        0    0.0000
    624 H         141.6784   64.2023   56.5039 H       103        0    0.0000
    625 C         141.4693   62.0879   57.0090 C.3     104        0    0.0000
    626 C         142.7195   62.0260   57.8935 C.3     104        0    0.0000
    627 H         140.5749   62.2194   57.6306 H       104        0    0.0000
    628 H         141.3422   61.1405   56.4706 H       104        0    0.0000
    629 H         142.5724   61.2996   58.7023 H       104        0    0.0000
    630 H         143.5780   61.6754   57.3074 H       104        0    0.0000
    631 C         143.0717   63.4181   58.5224 C.3     105        0    0.0000
    632 C         144.4055   63.3938   59.2771 C.3     105        0    0.0000
    633 H         143.1053   64.1689   57.7232 H       105        0    0.0000
    634 H         142.2615   63.7152   59.1999 H       105        0    0.0000
    635 H         145.1544   63.9855   58.7363 H       105        0    0.0000
    636 H         144.2881   63.8596   60.2634 H       105        0    0.0000
    637 C         144.9536   61.9376   59.4679 C.3     106        0    0.0000
    638 C         146.2887   61.9135   60.2202 C.3     106        0    0.0000
    639 H         144.2054   61.3464   60.0104 H       106        0    0.0000
    640 H         145.0691   61.4711   58.4817 H       106        0    0.0000
    641 H         146.1968   61.3078   61.1303 H       106        0    0.0000
    642 H         147.0603   61.4381   59.6020 H       106        0    0.0000
    643 C         146.7733   63.3507   60.6167 C.3     107        0    0.0000
    644 C         148.0824   63.3231   61.4132 C.3     107        0    0.0000
    645 H         146.9010   63.9452   59.7036 H       107        0    0.0000
    646 H         145.9861   63.8399   61.2036 H       107        0    0.0000
    647 H         147.9734   62.6781   62.2939 H       107        0    0.0000
    648 H         148.8849   62.8902   60.8031 H       107        0    0.0000
    649 C         148.5211   64.7523   61.8847 C.3     108        0    0.0000
    650 C         149.7236   64.7071   62.8340 C.3     108        0    0.0000
    651 H         148.7614   65.3577   61.0019 H       108        0    0.0000
    652 H         147.6704   65.2385   62.3781 H       108        0    0.0000
    653 H         150.6104   64.3427   62.3008 H       108        0    0.0000
    654 H         149.9619   65.7180   63.1876 H       108        0    0.0000
    655 C         149.4661   63.7852   64.0755 C.3     109        0    0.0000
    656 C         150.7608   63.1774   64.6261 C.3     109        0    0.0000
    657 H         148.9654   64.3732   64.8547 H       109        0    0.0000
    658 H         148.7699   62.9884   63.7859 H       109        0    0.0000
    659 H         151.5446   63.2035   63.8589 H       109        0    0.0000
    660 H         151.1269   63.7739   65.4709 H       109        0    0.0000
    661 C         150.5669   61.6958   65.1002 C.3     110        0    0.0000
    662 C         151.7125   60.7854   64.6444 C.3     110        0    0.0000
    663 H         150.4881   61.6821   66.1943 H       110        0    0.0000
    664 H         149.6117   61.3221   64.7109 H       110        0    0.0000
    665 H         152.2403   61.2405   63.7971 H       110        0    0.0000
    666 H         152.4480   60.6740   65.4507 H       110        0    0.0000
    667 C         151.2082   59.3630   64.2203 C.3     111        0    0.0000
    668 C         151.6147   59.0062   62.7862 C.3     111        0    0.0000
    669 H         151.6114   58.6214   64.9211 H       111        0    0.0000
    670 H         150.1163   59.3304   64.3209 H       111        0    0.0000
    671 H         151.8510   59.9183   62.2243 H       111        0    0.0000
    672 H         152.5265   58.3962   62.7944 H       111        0    0.0000
    673 C         150.4891   58.2224   62.0272 C.3     112        0    0.0000
    674 C         150.6708   58.2728   60.5062 C.3     112        0    0.0000
    675 H         150.4896   57.1809   62.3718 H       112        0    0.0000
    676 H         149.5155   58.6454   62.3040 H       112        0    0.0000
    677 H         150.6235   59.3113   60.1559 H       112        0    0.0000
    678 H         151.6632   57.8931   60.2331 H       112        0    0.0000
    679 C         149.5833   57.4344   59.7499 C.3     113        0    0.0000
    680 C         149.9942   57.1160   58.3081 C.3     113        0    0.0000
    681 H         149.4048   56.5047   60.3042 H       113        0    0.0000
    682 H         148.6385   57.9920   59.7574 H       113        0    0.0000
    683 H         150.0188   58.0366   57.7119 H       113        0    0.0000
    684 H         151.0096   56.7012   58.2892 H       113        0    0.0000
    685 C         149.0192   56.0968   57.6238 C.3     114        0    0.0000
    686 C         149.4654   55.7296   56.2043 C.3     114        0    0.0000
    687 H         148.9587   55.1941   58.2444 H       114        0    0.0000
    688 H         148.0123   56.5315   57.6010 H       114        0    0.0000
    689 H         149.4806   56.6255   55.5712 H       114        0    0.0000
    690 H         150.4902   55.3385   56.2214 H       114        0    0.0000
    691 C         148.5276   54.6606   55.5446 C.3     115        0    0.0000
    692 C         149.0050   54.2527   54.1464 C.3     115        0    0.0000
    693 H         148.4806   53.7803   56.1977 H       115        0    0.0000
    694 H         147.5103   55.0677   55.4908 H       115        0    0.0000
    695 H         148.9987   55.1228   53.4782 H       115        0    0.0000
    696 H         150.0421   53.8978   54.1917 H       115        0    0.0000
    697 C         148.1126   53.1271   53.5188 C.3     116        0    0.0000
    698 C         148.4536   52.8684   52.0471 C.3     116        0    0.0000
    699 H         148.2417   52.2070   54.1022 H       116        0    0.0000
    700 H         147.0588   53.4162   53.6155 H       116        0    0.0000
    701 H         148.9788   53.7341   51.6249 H       116        0    0.0000
    702 H         149.1368   52.0141   51.9639 H       116        0    0.0000
    703 C         147.1775   52.5809   51.1832 C.3     117        0    0.0000
    704 C         147.2386   53.2628   49.8120 C.3     117        0    0.0000
    705 H         147.0713   51.4960   51.0594 H       117        0    0.0000
    706 H         146.2929   52.9231   51.7345 H       117        0    0.0000
    707 H         147.9609   54.0883   49.8343 H       117        0    0.0000
    708 H         147.5943   52.5534   49.0546 H       117        0    0.0000
    709 C         145.8446   53.8231   49.3645 C.3     118        0    0.0000
    710 C         145.9587   55.1966   48.6939 C.3     118        0    0.0000
    711 H         145.3796   53.1061   48.6766 H       118        0    0.0000
    712 H         145.1904   53.8865   50.2429 H       118        0    0.0000
    713 H         146.7691   55.7743   49.1554 H       118        0    0.0000
    714 H         146.2199   55.0777   47.6351 H       118        0    0.0000
    715 C         144.6289   56.0202   48.7969 C.3     119        0    0.0000
    716 C         144.7572   57.4117   48.1672 C.3     119        0    0.0000
    717 H         143.8255   55.4576   48.3054 H       119        0    0.0000
    718 H         144.3495   56.1101   49.8539 H       119        0    0.0000
    719 H         145.1741   58.1175   48.8962 H       119        0    0.0000
    720 H         145.4579   57.3796   47.3236 H       119        0    0.0000
    721 C         143.3805   57.9635   47.6598 C.3     120        0    0.0000
    722 C         143.5277   59.2928   46.9112 C.3     120        0    0.0000
    723 H         142.9178   57.2132   47.0067 H       120        0    0.0000
    724 H         142.7109   58.0883   48.5199 H       120        0    0.0000
    725 H         142.5586   59.6031   46.5014 H       120        0    0.0000
    726 H         143.8439   60.0820   47.6046 H       120        0    0.0000
    727 C         144.5661   59.2033   45.7403 C.3     121        0    0.0000
    728 C         144.7381   60.5413   45.0128 C.3     121        0    0.0000
    729 H         145.5291   58.8694   46.1463 H       121        0    0.0000
    730 H         144.2371   58.4308   45.0342 H       121        0    0.0000
    731 H         143.8700   61.1856   45.2001 H       121        0    0.0000
    732 H         145.6147   61.0723   45.4041 H       121        0    0.0000
    733 C         144.9072   60.3587   43.4651 C.3     122        0    0.0000
    734 C         144.1360   61.4162   42.6677 C.3     122        0    0.0000
    735 H         145.9750   60.4060   43.2181 H       122        0    0.0000
    736 H         144.5639   59.3542   43.1880 H       122        0    0.0000
    737 H         143.1722   61.6220   43.1498 H       122        0    0.0000
    738 H         144.6926   62.3616   42.6601 H       122        0    0.0000
    739 C         143.8756   60.9712   41.1873 C.3     123        0    0.0000
    740 C         143.1393   62.0451   40.3789 C.3     123        0    0.0000
    741 H         144.8374   60.7375   40.7140 H       123        0    0.0000
    742 H         143.2939   60.0411   41.1947 H       123        0    0.0000
    743 H         142.1736   62.2724   40.8472 H       123        0    0.0000
    744 H         143.7167   62.9779   40.3789 H       123        0    0.0000
    745 C         142.8901   61.6052   38.8950 C.3     124        0    0.0000
    746 C         142.5970   62.7971   37.9772 C.3     124        0    0.0000
    747 H         143.7719   61.0609   38.5347 H       124        0    0.0000
    748 H         142.0521   60.8977   38.8719 H       124        0    0.0000
    749 H         141.6071   63.2120   38.2040 H       124        0    0.0000
    750 H         143.3236   63.5989   38.1582 H       124        0    0.0000
    751 C         142.6450   62.4048   36.4602 C.3     125        0    0.0000
    752 C         142.6631   63.6325   35.5430 C.3     125        0    0.0000
    753 H         143.5355   61.7891   36.2822 H       125        0    0.0000
    754 H         141.7761   61.7759   36.2300 H       125        0    0.0000
    755 H         142.7121   63.3172   34.4933 H       125        0    0.0000
    756 H         141.7322   64.2016   35.6578 H       125        0    0.0000
    757 C         143.8750   64.5805   35.8429 C.3     126        0    0.0000
    758 C         143.8481   65.8479   34.9816 C.3     126        0    0.0000
    759 H         143.8597   64.8482   36.9067 H       126        0    0.0000
    760 H         144.8071   64.0282   35.6705 H       126        0    0.0000
    761 H         144.8715   66.1896   34.7831 H       126        0    0.0000
    762 H         143.3938   65.6308   34.0069 H       126        0    0.0000
    763 C         143.0499   67.0124   35.6630 C.3     127        0    0.0000
    764 C         143.1279   68.3167   34.8618 C.3     127        0    0.0000
    765 H         142.0035   66.7038   35.7782 H       127        0    0.0000
    766 H         143.4456   67.1680   36.6743 H       127        0    0.0000
    767 H         144.1761   68.6010   34.7070 H       127        0    0.0000
    768 H         142.6901   68.1732   33.8661 H       127        0    0.0000
    769 C         142.3840   69.4977   35.5754 C.3     128        0    0.0000
    770 C         142.4238   70.7905   34.7532 C.3     128        0    0.0000
    771 H         141.3441   69.2009   35.7595 H       128        0    0.0000
    772 H         142.8433   69.6626   36.5580 H       128        0    0.0000
    773 H         143.4630   71.1062   34.5986 H       128        0    0.0000
    774 H         141.9960   70.6167   33.7580 H       128        0    0.0000
    775 C         141.6385   71.9583   35.4438 C.3     129        0    0.0000
    776 C         141.6459   73.2400   34.6035 C.3     129        0    0.0000
    777 H         140.6065   71.6325   35.6239 H       129        0    0.0000
    778 H         142.0842   72.1509   36.4276 H       129        0    0.0000
    779 H         142.6773   73.5740   34.4360 H       129        0    0.0000
    780 H         141.2137   73.0439   33.6144 H       129        0    0.0000
    781 C         140.8429   74.4015   35.2844 C.3     130        0    0.0000
    782 C         140.7367   75.6387   34.3861 C.3     130        0    0.0000
    783 H         139.8409   74.0357   35.5409 H       130        0    0.0000
    784 H         141.3339   74.6640   36.2297 H       130        0    0.0000
    785 H         141.7362   76.0422   34.1818 H       130        0    0.0000
    786 H         140.3038   75.3634   33.4164 H       130        0    0.0000
    787 C         139.8584   76.7666   35.0296 C.3     131        0    0.0000
    788 C         139.5618   77.9040   34.0462 C.3     131        0    0.0000
    789 H         138.9203   76.3238   35.3867 H       131        0    0.0000
    790 H         140.3779   77.1587   35.9127 H       131        0    0.0000
    791 H         139.6626   78.8731   34.5504 H       131        0    0.0000
    792 H         140.2944   77.8960   33.2297 H       131        0    0.0000
    793 C         138.1222   77.8001   33.4344 C.3     132        0    0.0000
    794 C         137.8609   78.8790   32.3775 C.3     132        0    0.0000
    795 H         137.9964   76.8034   32.9936 H       132        0    0.0000
    796 H         137.3870   77.8813   34.2446 H       132        0    0.0000
    797 H         136.8864   78.7119   31.9024 H       132        0    0.0000
    798 H         137.8148   79.8670   32.8520 H       132        0    0.0000
    799 C         138.9671   78.9029   31.2670 C.3     133        0    0.0000
    800 C         138.6788   79.9467   30.1824 C.3     133        0    0.0000
    801 H         139.9366   79.1077   31.7379 H       133        0    0.0000
    802 H         139.0394   77.9044   30.8183 H       133        0    0.0000
    803 H         138.8060   80.9574   30.5897 H       133        0    0.0000
    804 H         139.3992   79.8449   29.3613 H       133        0    0.0000
    805 C         137.2287   79.8149   29.6015 C.3     134        0    0.0000
    806 C         136.9461   80.8479   28.5050 C.3     134        0    0.0000
    807 H         137.0974   78.8004   29.2054 H       134        0    0.0000
    808 H         136.5079   79.9291   30.4206 H       134        0    0.0000
    809 H         135.9822   80.6345   28.0266 H       134        0    0.0000
    810 H         136.8649   81.8499   28.9442 H       134        0    0.0000
    811 C         138.0629   80.8673   27.4050 C.3     135        0    0.0000
    812 C         137.7300   81.8258   26.2563 C.3     135        0    0.0000
    813 H         139.0134   81.1547   27.8713 H       135        0    0.0000
    814 H         138.1965   79.8493   27.0188 H       135        0    0.0000
    815 H         138.5746   82.5016   26.0736 H       135        0    0.0000
    816 H         137.5720   81.2612   25.3291 H       135        0    0.0000
    817 C         136.4510   82.6834   26.5498 C.3     136        0    0.0000
    818 C         136.1100   83.6319   25.3951 C.3     136        0    0.0000
    819 H         135.6087   82.0075   26.7427 H       136        0    0.0000
    820 H         136.6130   83.2559   27.4715 H       136        0    0.0000
    821 H         137.0263   83.9320   24.8718 H       136        0    0.0000
    822 H         135.4809   83.1168   24.6586 H       136        0    0.0000
    823 C         135.3630   84.9199   25.8852 C.3     137        0    0.0000
    824 C         135.1702   85.9430   24.7603 C.3     137        0    0.0000
    825 H         134.3898   84.6283   26.2993 H       137        0    0.0000
    826 H         135.9338   85.3684   26.7078 H       137        0    0.0000
    827 H         136.1384   86.1928   24.3090 H       137        0    0.0000
    828 H         134.5523   85.5127   23.9624 H       137        0    0.0000
    829 C         134.4934   87.2630   25.2674 C.3     138        0    0.0000
    830 C         134.2216   88.2512   24.1278 C.3     138        0    0.0000
    831 H         133.5552   87.0069   25.7750 H       138        0    0.0000
    832 H         135.1427   87.7265   26.0204 H       138        0    0.0000
    833 H         135.1629   88.5266   23.6362 H       138        0    0.0000
    834 H         133.5929   87.7793   23.3626 H       138        0    0.0000
    835 C         133.5129   89.5563   24.6296 C.3     139        0    0.0000
    836 C         133.1629   90.5063   23.4789 C.3     139        0    0.0000
    837 H         132.6039   89.2771   25.1766 H       139        0    0.0000
    838 H         134.1702   90.0618   25.3479 H       139        0    0.0000
    839 H         134.0750   90.8064   22.9482 H       139        0    0.0000
    840 H         132.5272   89.9926   22.7471 H       139        0    0.0000
    841 C         132.4210   91.7944   23.9767 C.3     140        0    0.0000
    842 C         132.0393   92.7276   22.8223 C.3     140        0    0.0000
    843 H         131.5227   91.4935   24.5299 H       140        0    0.0000
    844 H         133.0676   92.3220   24.6888 H       140        0    0.0000
    845 H         132.9434   93.0977   22.3231 H       140        0    0.0000
    846 H         131.4657   92.1764   22.0670 H       140        0    0.0000
    847 C         131.1909   93.9541   23.3055 C.3     141        0    0.0000
    848 C         130.7711   94.8632   22.1452 C.3     141        0    0.0000
    849 H         130.3034   93.5840   23.8336 H       141        0    0.0000
    850 H         131.7777   94.5239   24.0366 H       141        0    0.0000
    851 H         130.0723   95.6300   22.5020 H       141        0    0.0000
    852 H         131.6451   95.3939   21.7479 H       141        0    0.0000
    853 C         130.0923   94.0640   20.9798 C.3     142        0    0.0000
    854 C         129.7380   94.9617   19.7892 C.3     142        0    0.0000
    855 H         130.7700   93.2633   20.6586 H       142        0    0.0000
    856 H         129.1885   93.5761   21.3652 H       142        0    0.0000
    857 H         130.6432   95.2054   19.2194 H       142        0    0.0000
    858 H         129.0676   94.4294   19.1032 H       142        0    0.0000
    859 C         129.0476   96.2963   20.2362 C.3     143        0    0.0000
    860 C         129.1245   97.3803   19.1555 C.3     143        0    0.0000
    861 H         127.9999   96.0865   20.4847 H       143        0    0.0000
    862 H         129.5253   96.6499   21.1583 H       143        0    0.0000
    863 H         130.1439   97.4399   18.7543 H       143        0    0.0000
    864 H         128.4697   97.1203   18.3146 H       143        0    0.0000
    865 C         128.7123   98.7917   19.6992 C.3     144        0    0.0000
    866 C         127.5400   99.3954   18.9180 C.3     144        0    0.0000
    867 H         128.4492   98.6988   20.7602 H       144        0    0.0000
    868 H         129.5820   99.4584   19.6475 H       144        0    0.0000
    869 H         127.9160  100.0437   18.1168 H       144        0    0.0000
    870 H         126.9611   98.5994   18.4335 H       144        0    0.0000
    871 C         126.5817  100.2302   19.8357 C.3     145        0    0.0000
    872 C         126.7475  101.7397   19.6279 C.3     145        0    0.0000
    873 H         125.5461   99.9335   19.6282 H       145        0    0.0000
    874 H         126.7800   99.9706   20.8830 H       145        0    0.0000
    875 H         127.7631  101.9618   19.2776 H       145        0    0.0000
    876 H         126.0612  102.0895   18.8468 H       145        0    0.0000
    877 C         126.4764  102.5533   20.9402 C.3     146        0    0.0000
    878 C         125.5803  103.7719   20.6934 C.3     146        0    0.0000
    879 H         126.0120  101.8884   21.6789 H       146        0    0.0000
    880 H         127.4370  102.8723   21.3633 H       146        0    0.0000
    881 H         126.1499  104.5614   20.1875 H       146        0    0.0000
    882 H         124.7538  103.5018   20.0244 H       146        0    0.0000
    883 C         124.9854  104.3510   22.0231 C.3     147        0    0.0000
    884 C         124.1162  105.5896   21.7796 C.3     147        0    0.0000
    885 H         124.3957  103.5687   22.5168 H       147        0    0.0000
    886 H         125.8112  104.5984   22.7017 H       147        0    0.0000
    887 H         124.7041  106.3694   21.2798 H       147        0    0.0000
    888 H         123.2865  105.3405   21.1065 H       147        0    0.0000
    889 C         123.5291  106.1744   23.1104 C.3     148        0    0.0000
    890 C         122.6326  107.3928   22.8637 C.3     148        0    0.0000
    891 H         122.9617  105.3874   23.6224 H       148        0    0.0000
    892 H         124.3595  106.4464   23.7737 H       148        0    0.0000
    893 H         123.2393  108.2459   22.5356 H       148        0    0.0000
    894 H         121.9237  107.1804   22.0539 H       148        0    0.0000
    895 C         121.8282  107.8074   24.1438 C.3     149        0    0.0000
    896 C         120.8516  108.9563   23.8693 C.3     149        0    0.0000
    897 H         121.2834  106.9319   24.5180 H       149        0    0.0000
    898 H         122.5377  108.0963   24.9291 H       149        0    0.0000
    899 H         121.3917  109.9109   23.8425 H       149        0    0.0000
    900 H         120.3884  108.8287   22.8830 H       149        0    0.0000
    901 C         119.7206  109.0459   24.9510 C.3     150        0    0.0000
    902 C         118.5448  109.9151   24.4914 C.3     150        0    0.0000
    903 H         119.3711  108.0320   25.1820 H       150        0    0.0000
    904 H         120.1480  109.4504   25.8769 H       150        0    0.0000
    905 H         118.8600  110.9629   24.4121 H       150        0    0.0000
    906 H         118.2185  109.6076   23.4902 H       150        0    0.0000
    907 C         117.3232  109.8276   25.4700 C.3     151        0    0.0000
    908 C         116.8787  111.2070   25.9688 C.3     151        0    0.0000
    909 H         116.4930  109.3282   24.9554 H       151        0    0.0000
    910 H         117.5961  109.1902   26.3201 H       151        0    0.0000
    911 H         117.6931  111.9317   25.8463 H       151        0    0.0000
    912 H         116.0384  111.5723   25.3655 H       151        0    0.0000
    913 C         116.4462  111.1829   27.4754 C.3     152        0    0.0000
    914 C         116.4536  112.5806   28.1043 C.3     152        0    0.0000
    915 H         115.4440  110.7428   27.5486 H       152        0    0.0000
    916 H         117.1230  110.5187   28.0270 H       152        0    0.0000
    917 H         117.3832  113.1036   27.8477 H       152        0    0.0000
    918 H         115.6313  113.1811   27.6959 H       152        0    0.0000
    919 C         116.3161  112.5306   29.6651 C.3     153        0    0.0000
    920 C         116.6460  113.8761   30.3206 C.3     153        0    0.0000
    921 H         115.2929  112.2286   29.9204 H       153        0    0.0000
    922 H         116.9814  111.7496   30.0538 H       153        0    0.0000
    923 H         117.5051  114.3385   29.8188 H       153        0    0.0000
    924 H         115.8029  114.5682   30.2038 H       153        0    0.0000
    925 C         116.9715  113.7293   31.8471 C.3     154        0    0.0000
    926 C         117.8520  114.8716   32.3657 C.3     154        0    0.0000
    927 H         116.0292  113.6963   32.4079 H       154        0    0.0000
    928 H         117.4698  112.7659   32.0113 H       154        0    0.0000
    929 H         118.5759  115.1676   31.5963 H       154        0    0.0000
    930 H         117.2367  115.7552   32.5760 H       154        0    0.0000
    931 C         118.6312  114.4770   33.6674 C.3     155        0    0.0000
    932 C         119.5403  115.6062   34.1650 C.3     155        0    0.0000
    933 H         117.9063  114.2073   34.4454 H       155        0    0.0000
    934 H         119.2254  113.5773   33.4649 H       155        0    0.0000
    935 H         120.5504  115.4845   33.7545 H       155        0    0.0000
    936 H         119.1689  116.5740   33.8060 H       155        0    0.0000
    937 C         119.6325  115.6491   35.7293 C.3     156        0    0.0000
    938 C         120.4206  116.8639   36.2317 C.3     156        0    0.0000
    939 H         118.6165  115.6625   36.1432 H       156        0    0.0000
    940 H         120.1038  114.7231   36.0813 H       156        0    0.0000
    941 H         120.3973  116.9003   37.3279 H       156        0    0.0000
    942 H         121.4749  116.7743   35.9418 H       156        0    0.0000
    943 C         119.8548  118.2132   35.6691 C.3     157        0    0.0000
    944 C         120.7406  119.4104   36.0311 C.3     157        0    0.0000
    945 H         119.7613  118.1304   34.5791 H       157        0    0.0000
    946 H         118.8413  118.3628   36.0617 H       157        0    0.0000
    947 H         121.0350  119.3550   37.0864 H       157        0    0.0000
    948 H         121.6668  119.3843   35.4438 H       157        0    0.0000
    949 C         120.0207  120.7800   35.7787 C.3     158        0    0.0000
    950 C         120.8842  121.9756   36.1956 C.3     158        0    0.0000
    951 H         119.7645  120.8539   34.7145 H       158        0    0.0000
    952 H         119.0735  120.7889   36.3321 H       158        0    0.0000
    953 H         121.1438  121.8996   37.2588 H       158        0    0.0000
    954 H         121.8298  121.9689   35.6393 H       158        0    0.0000
    955 C         120.1622  123.3449   35.9484 C.3     159        0    0.0000
    956 C         121.0120  124.5389   36.3967 C.3     159        0    0.0000
    957 H         119.9248  123.4318   34.8808 H       159        0    0.0000
    958 H         119.2051  123.3418   36.4846 H       159        0    0.0000
    959 H         121.2649  124.4426   37.4599 H       159        0    0.0000
    960 H         121.9613  124.5525   35.8470 H       159        0    0.0000
    961 C         120.2793  125.9067   36.1736 C.3     160        0    0.0000
    962 C         120.3412  126.8076   37.4120 C.3     160        0    0.0000
    963 H         120.7345  126.4158   35.3150 H       160        0    0.0000
    964 H         119.2344  125.7084   35.9046 H       160        0    0.0000
    965 H         120.3529  126.1954   38.3223 H       160        0    0.0000
    966 H         121.2730  127.3867   37.4098 H       160        0    0.0000
    967 C         119.1298  127.7999   37.4860 C.3     161        0    0.0000
    968 C         119.5795  129.2650   37.5054 C.3     161        0    0.0000
    969 H         118.4721  127.6197   36.6266 H       161        0    0.0000
    970 H         118.5426  127.5747   38.3849 H       161        0    0.0000
    971 H         119.9681  129.5260   38.4976 H       161        0    0.0000
    972 H         120.4020  129.4155   36.7953 H       161        0    0.0000
    973 C         118.4138  130.2490   37.1443 C.3     162        0    0.0000
    974 C         118.1881  131.3058   38.2312 C.3     162        0    0.0000
    975 H         118.6451  130.7357   36.1887 H       162        0    0.0000
    976 H         117.4963  129.6682   36.9881 H       162        0    0.0000
    977 H         118.2998  130.8537   39.2245 H       162        0    0.0000
    978 H         118.9497  132.0919   38.1555 H       162        0    0.0000
    979 C         116.7695  131.9656   38.1329 C.3     163        0    0.0000
    980 C         116.8442  133.4517   37.7658 C.3     163        0    0.0000
    981 H         116.1781  131.4227   37.3853 H       163        0    0.0000
    982 H         116.2542  131.8408   39.0934 H       163        0    0.0000
    983 H         116.8531  134.0641   38.6760 H       163        0    0.0000
    984 H         117.7815  133.6616   37.2357 H       163        0    0.0000
    985 C         115.6427  133.9024   36.8653 C.3     164        0    0.0000
    986 C         116.0756  134.8765   35.7640 C.3     164        0    0.0000
    987 H         115.1812  133.0122   36.4200 H       164        0    0.0000
    988 H         114.8796  134.3683   37.5010 H       164        0    0.0000
    989 H         116.2335  135.8763   36.1870 H       164        0    0.0000
    990 H         117.0354  134.5597   35.3375 H       164        0    0.0000
    991 C         115.0186  134.9770   34.6107 C.3     165        0    0.0000
    992 C         114.4013  136.3761   34.5088 C.3     165        0    0.0000
    993 H         115.5026  134.7095   33.6632 H       165        0    0.0000
    994 H         114.2332  134.2311   34.7848 H       165        0    0.0000
    995 H         114.5348  136.9160   35.4544 H       165        0    0.0000
    996 H         114.9181  136.9600   33.7370 H       165        0    0.0000
    997 C         112.8723  136.3274   34.1663 C.3     166        0    0.0000
    998 C         112.1265  137.5719   34.6603 C.3     166        0    0.0000
    999 H         112.7563  136.2258   33.0802 H       166        0    0.0000
   1000 H         112.4380  135.4256   34.6153 H       166        0    0.0000
   1001 H         112.3861  137.7754   35.7066 H       166        0    0.0000
   1002 H         112.4371  138.4509   34.0820 H       166        0    0.0000
   1003 C         110.5707  137.4162   34.5468 C.3     167        0    0.0000
   1004 C         109.8249  138.6607   35.0408 C.3     167        0    0.0000
   1005 H         110.3111  137.2128   33.5005 H       167        0    0.0000
   1006 H         110.2602  136.5373   35.1251 H       167        0    0.0000
   1007 H         109.9000  138.7356   36.1327 H       167        0    0.0000
   1008 H         110.2899  139.5656   34.6303 H       167        0    0.0000
   1009 C         108.3099  138.6441   34.6385 C.3     168        0    0.0000
   1010 C         107.5860  139.9315   35.0481 C.3     168        0    0.0000
   1011 H         108.2336  138.4985   33.5539 H       168        0    0.0000
   1012 H         107.8290  137.7767   35.1074 H       168        0    0.0000
   1013 H         106.5599  139.9258   34.6600 H       168        0    0.0000
   1014 H         107.5091  139.9884   36.1410 H       168        0    0.0000
   1015 C         108.3168  141.2160   34.5255 C.3     169        0    0.0000
   1016 C         107.5137  142.4927   34.7979 C.3     169        0    0.0000
   1017 H         109.3018  141.2819   35.0041 H       169        0    0.0000
   1018 H         108.4964  141.1072   33.4487 H       169        0    0.0000
   1019 H         107.4577  142.6786   35.8776 H       169        0    0.0000
   1020 H         108.0217  143.3584   34.3551 H       169        0    0.0000
   1021 C         106.0576  142.4126   34.2228 C.3     170        0    0.0000
   1022 C         105.2247  143.6498   34.5759 C.3     170        0    0.0000
   1023 H         106.1136  142.2953   33.1334 H       170        0    0.0000
   1024 H         105.5726  141.5090   34.6124 H       170        0    0.0000
   1025 H         104.1552  143.4142   34.5114 H       170        0    0.0000
   1026 H         105.4191  143.9507   35.6128 H       170        0    0.0000
   1027 C         105.5328  144.8627   33.6317 C.3     171        0    0.0000
   1028 C         104.6224  146.0633   33.9125 C.3     171        0    0.0000
   1029 H         106.5840  145.1503   33.7571 H       171        0    0.0000
   1030 H         105.4170  144.5383   32.5901 H       171        0    0.0000
   1031 H         103.7209  145.7354   34.4448 H       171        0    0.0000
   1032 H         105.1338  146.7777   34.5694 H       171        0    0.0000
   1033 C         104.1926  146.8030   32.5989 C.3     172        0    0.0000
   1034 C         103.2887  148.0083   32.8802 C.3     172        0    0.0000
   1035 H         105.0942  147.1257   32.0637 H       172        0    0.0000
   1036 H         103.6760  146.0900   31.9444 H       172        0    0.0000
   1037 H         102.3647  147.6791   33.3715 H       172        0    0.0000
   1038 H         103.7859  148.6976   33.5739 H       172        0    0.0000
   1039 C         102.9154  148.7889   31.5730 C.3     173        0    0.0000
   1040 C         101.9857  149.9754   31.8504 C.3     173        0    0.0000
   1041 H         103.8384  149.1383   31.0940 H       173        0    0.0000
   1042 H         102.4391  148.0942   30.8701 H       173        0    0.0000
   1043 H         101.0966  149.6369   32.3968 H       173        0    0.0000
   1044 H         102.4909  150.7069   32.4932 H       173        0    0.0000
   1045 C         101.5272  150.6915   30.5335 C.3     174        0    0.0000
   1046 C         100.0206  150.9729   30.5196 C.3     174        0    0.0000
   1047 H         102.0861  151.6297   30.4281 H       174        0    0.0000
   1048 H         101.8005  150.0640   29.6761 H       174        0    0.0000
   1049 H          99.5064  150.3031   31.2199 H       174        0    0.0000
   1050 H          99.8260  151.9967   30.8624 H       174        0    0.0000
   1051 C          99.3952  150.7900   29.0938 C.3     175        0    0.0000
   1052 C          99.3480  152.1046   28.3072 C.3     175        0    0.0000
   1053 H          99.9812  150.0434   28.5437 H       175        0    0.0000
   1054 H          98.3835  150.3795   29.2014 H       175        0    0.0000
   1055 H          98.3875  152.1964   27.7852 H       175        0    0.0000
   1056 H          99.4156  152.9569   28.9946 H       175        0    0.0000
   1057 C         100.5064  152.2100   27.2563 C.3     176        0    0.0000
   1058 C          99.9800  152.3624   25.8249 C.3     176        0    0.0000
   1059 H         101.1429  153.0650   27.5160 H       176        0    0.0000
   1060 H         101.1354  151.3144   27.3323 H       176        0    0.0000
   1061 H          98.9448  152.7253   25.8415 H       176        0    0.0000
   1062 H         100.5689  153.1147   25.2857 H       176        0    0.0000
   1063 C         100.0301  151.0142   25.0267 C.3     177        0    0.0000
   1064 C          99.8760  151.2270   23.5168 C.3     177        0    0.0000
   1065 H         100.9816  150.5118   25.2406 H       177        0    0.0000
   1066 H          99.2354  150.3545   25.3967 H       177        0    0.0000
   1067 H          98.9749  151.8177   23.3102 H       177        0    0.0000
   1068 H         100.7258  151.8026   23.1294 H       177        0    0.0000
   1069 C          99.7832  149.8729   22.7323 C.3     178        0    0.0000
   1070 C          99.3636  150.0751   21.2722 C.3     178        0    0.0000
   1071 H         100.7575  149.3706   22.7777 H       178        0    0.0000
   1072 H          99.0666  149.2172   23.2423 H       178        0    0.0000
   1073 H         100.1311  150.6469   20.7360 H       178        0    0.0000
   1074 H          99.2827  149.1050   20.7663 H       178        0    0.0000
   1075 C          97.9936  150.8264   21.1463 C.3     179        0    0.0000
   1076 C          97.8030  151.4591   19.7633 C.3     179        0    0.0000
   1077 H          97.1815  150.1177   21.3509 H       179        0    0.0000
   1078 H          97.9411  151.5987   21.9237 H       179        0    0.0000
   1079 H          98.7742  151.5787   19.2673 H       179        0    0.0000
   1080 H          97.2033  150.7971   19.1263 H       179        0    0.0000
   1081 C          97.1000  152.8580   19.8418 C.3     180        0    0.0000
   1082 C          97.1468  153.6073   18.5056 C.3     180        0    0.0000
   1083 H          96.0588  152.7134   20.1557 H       180        0    0.0000
   1084 H          97.5852  153.4542   20.6246 H       180        0    0.0000
   1085 H          98.1883  153.7725   18.2032 H       180        0    0.0000
   1086 H          96.6824  153.0011   17.7179 H       180        0    0.0000
   1087 C          96.4151  154.9920   18.5750 C.3     181        0    0.0000
   1088 C          96.2998  155.6576   17.1993 C.3     181        0    0.0000
   1089 H          95.4172  154.8434   19.0059 H       181        0    0.0000
   1090 H          96.9618  155.6466   19.2650 H       181        0    0.0000
   1091 H          97.2986  155.8833   16.8057 H       181        0    0.0000
   1092 H          95.8285  154.9694   16.4867 H       181        0    0.0000
   1093 C          95.4648  156.9835   17.2489 C.3     182        0    0.0000
   1094 C          94.8018  157.3030   15.9046 C.3     182        0    0.0000
   1095 H          94.7021  156.8919   18.0322 H       182        0    0.0000
   1096 H          96.1257  157.8066   17.5475 H       182        0    0.0000
   1097 H          95.5540  157.6576   15.1890 H       182        0    0.0000
   1098 H          94.3632  156.3934   15.4758 H       182        0    0.0000
   1099 C          93.6801  158.3899   16.0388 C.3     183        0    0.0000
   1100 C          92.4930  158.1174   15.1085 C.3     183        0    0.0000
   1101 H          93.3413  158.4214   17.0817 H       183        0    0.0000
   1102 H          94.1128  159.3736   15.8182 H       183        0    0.0000
   1103 H          92.7710  158.3358   14.0700 H       183        0    0.0000
   1104 H          92.2223  157.0549   15.1454 H       183        0    0.0000
   1105 C          91.2344  158.9728   15.4853 C.3     184        0    0.0000
   1106 C          90.1374  158.8933   14.4179 C.3     184        0    0.0000
   1107 H          90.8462  158.6246   16.4504 H       184        0    0.0000
   1108 H          91.5453  160.0152   15.6283 H       184        0    0.0000
   1109 H          90.5544  159.1310   13.4314 H       184        0    0.0000
   1110 H          89.7459  157.8703   14.3563 H       184        0    0.0000
   1111 C          88.9491  159.8721   14.7133 C.3     185        0    0.0000
   1112 C          88.3515  160.4637   13.4319 C.3     185        0    0.0000
   1113 H          88.1765  159.3313   15.2738 H       185        0    0.0000
   1114 H          89.3078  160.6766   15.3673 H       185        0    0.0000
   1115 H          89.1538  160.7675   12.7481 H       185        0    0.0000
   1116 H          87.7608  159.7032   12.9063 H       185        0    0.0000
   1117 C          87.4368  161.7037   13.7203 C.3     186        0    0.0000
   1118 C          87.1062  162.4903   12.4471 C.3     186        0    0.0000
   1119 H          86.5125  161.3575   14.1993 H       186        0    0.0000
   1120 H          87.9420  162.3550   14.4443 H       186        0    0.0000
   1121 H          88.0306  162.7671   11.9252 H       186        0    0.0000
   1122 H          86.5302  161.8624   11.7560 H       186        0    0.0000
   1123 C          86.2871  163.7924   12.7490 C.3     187        0    0.0000
   1124 C          86.0174  164.6152   11.4844 C.3     187        0    0.0000
   1125 H          85.3391  163.5115   13.2243 H       187        0    0.0000
   1126 H          86.8394  164.3960   13.4799 H       187        0    0.0000
   1127 H          86.9644  164.8716   10.9934 H       187        0    0.0000
   1128 H          85.4403  164.0211   10.7650 H       187        0    0.0000
   1129 C          85.2335  165.9375   11.7920 C.3     188        0    0.0000
   1130 C          84.8325  166.6852   10.5156 C.3     188        0    0.0000
   1131 H          84.3405  165.6906   12.3795 H       188        0    0.0000
   1132 H          85.8586  166.5804   12.4239 H       188        0    0.0000
   1133 H          85.7100  167.1743   10.0747 H       188        0    0.0000
   1134 H          84.4572  165.9768    9.7667 H       188        0    0.0000
   1135 C          83.7314  167.7686   10.7828 C.3     189        0    0.0000
   1136 C          83.0964  168.2834    9.4863 C.3     189        0    0.0000
   1137 H          82.9608  167.3366   11.4333 H       189        0    0.0000
   1138 H          84.1816  168.6011   11.3376 H       189        0    0.0000
   1139 H          83.5766  169.2205    9.1785 H       189        0    0.0000
   1140 H          83.2613  167.5636    8.6750 H       189        0    0.0000
   1141 C          81.5557  168.5309    9.6369 C.3     190        0    0.0000
   1142 C          80.7476  167.8568    8.5227 C.3     190        0    0.0000
   1143 H          81.2315  168.1568   10.6159 H       190        0    0.0000
   1144 H          81.3695  169.6120    9.6353 H       190        0    0.0000
   1145 H          80.5238  168.5809    7.7295 H       190        0    0.0000
   1146 H          81.3386  167.0562    8.0609 H       190        0    0.0000
   1147 C          79.4006  167.2513    9.0487 C.3     191        0    0.0000
   1148 C          78.7545  166.3025    8.0332 C.3     191        0    0.0000
   1149 H          79.5950  166.7204    9.9889 H       191        0    0.0000
   1150 H          78.7131  168.0723    9.2869 H       191        0    0.0000
   1151 H          78.5724  166.8299    7.0886 H       191        0    0.0000
   1152 H          79.4367  165.4743    7.8052 H       191        0    0.0000
   1153 C          77.3981  165.7118    8.5516 C.3     192        0    0.0000
   1154 C          76.4361  165.3749    7.4070 C.3     192        0    0.0000
   1155 H          77.6075  164.8125    9.1440 H       192        0    0.0000
   1156 H          76.9339  166.4363    9.2322 H       192        0    0.0000
   1157 H          76.3590  166.2250    6.7179 H       192        0    0.0000
   1158 H          76.8257  164.5311    6.8242 H       192        0    0.0000
   1159 C          75.0014  165.0120    7.9242 C.3     193        0    0.0000
   1160 C          73.9887  164.8781    6.7815 C.3     193        0    0.0000
   1161 H          75.0562  164.0738    8.4900 H       193        0    0.0000
   1162 H          74.6732  165.7861    8.6288 H       193        0    0.0000
   1163 H          73.9992  165.7832    6.1616 H       193        0    0.0000
   1164 H          74.2691  164.0442    6.1262 H       193        0    0.0000
   1165 C          72.5302  164.6411    7.3050 C.3     194        0    0.0000
   1166 C          71.4837  164.7870    6.1948 C.3     194        0    0.0000
   1167 H          72.4718  163.6389    7.7475 H       194        0    0.0000
   1168 H          72.3240  165.3545    8.1125 H       194        0    0.0000
   1169 H          71.6167  165.7445    5.6760 H       194        0    0.0000
   1170 H          71.6204  163.9998    5.4430 H       194        0    0.0000
   1171 C          70.0182  164.7103    6.7460 C.3     195        0    0.0000
   1172 C          68.9768  165.0631    5.6782 C.3     195        0    0.0000
   1173 H          69.8368  163.6982    7.1284 H       195        0    0.0000
   1174 H          69.9258  165.3914    7.6010 H       195        0    0.0000
   1175 H          69.3829  165.8155    4.9908 H       195        0    0.0000
   1176 H          68.7429  164.1779    5.0738 H       195        0    0.0000
   1177 C          67.6486  165.6138    6.3028 C.3     196        0    0.0000
   1178 C          66.6409  166.0497    5.2334 C.3     196        0    0.0000
   1179 H          67.2085  164.8366    6.9398 H       196        0    0.0000
   1180 H          67.8903  166.4593    6.9588 H       196        0    0.0000
   1181 H          66.6782  165.3626    4.3790 H       196        0    0.0000
   1182 H          65.6210  165.9986    5.6345 H       196        0    0.0000
   1183 C          66.9103  167.5070    4.7220 C.3     197        0    0.0000
   1184 C          65.8222  167.9951    3.7594 C.3     197        0    0.0000
   1185 H          66.9763  168.1786    5.5869 H       197        0    0.0000
   1186 H          67.8892  167.5329    4.2275 H       197        0    0.0000
   1187 H          66.0034  169.0422    3.4866 H       197        0    0.0000
   1188 H          65.8567  167.4164    2.8280 H       197        0    0.0000
   1189 C          64.3859  167.8750    4.3760 C.3     198        0    0.0000
   1190 C          63.3055  168.4372    3.4456 C.3     198        0    0.0000
   1191 H          64.1821  166.8195    4.5946 H       198        0    0.0000
   1192 H          64.3681  168.4048    5.3365 H       198        0    0.0000
   1193 H          63.1974  167.7945    2.5631 H       198        0    0.0000
   1194 H          62.3339  168.4388    3.9552 H       198        0    0.0000
   1195 C          63.6298  169.8959    2.9717 C.3     199        0    0.0000
   1196 C          62.5608  170.4498    2.0233 C.3     199        0    0.0000
   1197 H          63.7216  170.5420    3.8536 H       199        0    0.0000
   1198 H          64.6090  169.8974    2.4769 H       199        0    0.0000
   1199 H          62.8771  170.3167    0.9813 H       199        0    0.0000
   1200 H          61.6253  169.8893    2.1426 H       199        0    0.0000
   1201 C          62.2743  171.9704    2.2742 C.3     200        0    0.0000
   1202 C          61.2352  172.5343    1.2989 C.3     200        0    0.0000
   1203 H          61.9292  172.0994    3.3076 H       200        0    0.0000
   1204 H          63.2154  172.5270    2.1845 H       200        0    0.0000
   1205 H          60.2434  172.1252    1.5280 H       200        0    0.0000
   1206 H          61.1616  173.6227    1.4155 H       200        0    0.0000
   1207 C          61.5836  172.2085   -0.1943 C.3     201        0    0.0000
   1208 C          60.5794  172.8268   -1.1733 C.3     201        0    0.0000
   1209 H          62.5944  172.5763   -0.4099 H       201        0    0.0000
   1210 H          61.6110  171.1192   -0.3215 H       201        0    0.0000
   1211 H          59.5935  172.3634   -1.0435 H       201        0    0.0000
   1212 H          60.4557  173.8958   -0.9602 H       201        0    0.0000
   1213 C          61.0246  172.6575   -2.6669 C.3     202        0    0.0000
   1214 C          59.9922  173.2232   -3.6483 C.3     202        0    0.0000
   1215 H          61.9906  173.1583   -2.8069 H       202        0    0.0000
   1216 H          61.1901  171.5918   -2.8679 H       202        0    0.0000
   1217 H          59.0124  172.7630   -3.4704 H       202        0    0.0000
   1218 H          59.8685  174.3009   -3.4844 H       202        0    0.0000
   1219 C          60.3995  172.9830   -5.1430 C.3     203        0    0.0000
   1220 C          59.3719  173.5573   -6.1244 C.3     203        0    0.0000
   1221 H          61.3825  173.4371   -5.3190 H       203        0    0.0000
   1222 H          60.5162  171.9048   -5.3087 H       203        0    0.0000
   1223 H          58.3899  173.0998   -5.9516 H       203        0    0.0000
   1224 H          59.2516  174.6346   -5.9555 H       203        0    0.0000
   1225 C          59.7824  173.3230   -7.6191 C.3     204        0    0.0000
   1226 C          58.7573  173.9016   -8.6006 C.3     204        0    0.0000
   1227 H          60.7660  173.7775   -7.7911 H       204        0    0.0000
   1228 H          59.8992  172.2455   -7.7890 H       204        0    0.0000
   1229 H          57.7745  173.4446   -8.4310 H       204        0    0.0000
   1230 H          58.6379  174.9785   -8.4284 H       204        0    0.0000
   1231 C          59.1703  173.6716  -10.0953 C.3     205        0    0.0000
   1232 C          58.1338  174.2298  -11.0767 C.3     205        0    0.0000
   1233 H          60.1454  174.1433  -10.2693 H       205        0    0.0000
   1234 H          59.3062  172.5960  -10.2631 H       205        0    0.0000
   1235 H          57.1580  173.7604  -10.9006 H       205        0    0.0000
   1236 H          58.0002  175.3060  -10.9110 H       205        0    0.0000
   1237 C          58.5447  173.9958  -12.5714 C.3     206        0    0.0000
   1238 C          57.8700  174.9911  -13.5218 C.3     206        0    0.0000
   1239 H          59.6356  174.0762  -12.6550 H       206        0    0.0000
   1240 H          58.2819  172.9688  -12.8537 H       206        0    0.0000
   1241 H          56.7822  174.8499  -13.5041 H       206        0    0.0000
   1242 H          58.0598  176.0185  -13.1872 H       206        0    0.0000
   1243 C          58.3754  174.8389  -14.9979 C.3     207        0    0.0000
   1244 C          57.2207  174.6897  -15.9947 C.3     207        0    0.0000
   1245 H          58.9838  175.7147  -15.2554 H       207        0    0.0000
   1246 H          59.0381  173.9666  -15.0567 H       207        0    0.0000
   1247 H          56.4122  174.0980  -15.5479 H       207        0    0.0000
   1248 H          56.7976  175.6741  -16.2303 H       207        0    0.0000
   1249 C          57.6727  174.0016  -17.3288 C.3     208        0    0.0000
   1250 C          57.5937  174.9522  -18.5284 C.3     208        0    0.0000
   1251 H          58.6992  173.6341  -17.2069 H       208        0    0.0000
   1252 H          57.0417  173.1215  -17.5041 H       208        0    0.0000
   1253 H          56.5703  174.9762  -18.9227 H       208        0    0.0000
   1254 H          57.8342  175.9754  -18.2140 H       208        0    0.0000
   1255 C          58.5699  174.5354  -19.6820 C.3     209        0    0.0000
   1256 C          57.9382  174.7066  -21.0678 C.3     209        0    0.0000
   1257 H          59.4831  175.1388  -19.6077 H       209        0    0.0000
   1258 H          58.8695  173.4908  -19.5316 H       209        0    0.0000
   1259 H          56.9297  174.2749  -21.0774 H       209        0    0.0000
   1260 H          57.8267  175.7727  -21.3013 H       209        0    0.0000
   1261 C          58.7888  174.0284  -22.1965 C.3     210        0    0.0000
   1262 C          58.2907  174.3947  -23.5988 C.3     210        0    0.0000
   1263 H          59.8370  174.3301  -22.0788 H       210        0    0.0000
   1264 H          58.7567  172.9406  -22.0581 H       210        0    0.0000
   1265 H          57.2581  174.0495  -23.7333 H       210        0    0.0000
   1266 H          58.2767  175.4849  -23.7202 H       210        0    0.0000
   1267 C          59.1827  173.7720  -24.7276 C.3     211        0    0.0000
   1268 C          58.6796  174.1313  -26.1301 C.3     211        0    0.0000
   1269 H          60.2141  174.1221  -24.5968 H       211        0    0.0000
   1270 H          59.2016  172.6822  -24.6026 H       211        0    0.0000
   1271 H          57.6461  173.7866  -26.2588 H       211        0    0.0000
   1272 H          58.6663  175.2209  -26.2572 H       211        0    0.0000
   1273 C          59.5666  173.5016  -27.2588 C.3     212        0    0.0000
   1274 C          59.0650  173.8630  -28.6613 C.3     212        0    0.0000
   1275 H          60.6004  173.8449  -27.1290 H       212        0    0.0000
   1276 H          59.5783  172.4119  -27.1328 H       212        0    0.0000
   1277 H          58.0313  173.5195  -28.7912 H       212        0    0.0000
   1278 H          59.0531  174.9527  -28.7872 H       212        0    0.0000
   1279 C          59.9522  173.2336  -29.7900 C.3     213        0    0.0000
   1280 C          59.4492  173.5929  -31.1925 C.3     213        0    0.0000
   1281 H          60.9856  173.5785  -29.6612 H       213        0    0.0000
   1282 H          59.9656  172.1440  -29.6630 H       213        0    0.0000
   1283 H          58.4162  173.2470  -31.3217 H       213        0    0.0000
   1284 H          59.4347  174.6826  -31.3192 H       213        0    0.0000
   1285 C          60.3373  172.9648  -32.3213 C.3     214        0    0.0000
   1286 C          59.8315  173.3202  -33.7237 C.3     214        0    0.0000
   1287 H          61.3697  173.3135  -32.1941 H       214        0    0.0000
   1288 H          60.3547  171.8754  -32.1925 H       214        0    0.0000
   1289 H          58.7979  172.9748  -33.8495 H       214        0    0.0000
   1290 H          59.8178  174.4094  -33.8538 H       214        0    0.0000
   1291 C          60.7165  172.6875  -34.8525 C.3     215        0    0.0000
   1292 C          60.2132  173.0465  -36.2549 C.3     215        0    0.0000
   1293 H          61.7508  173.0304  -34.7248 H       215        0    0.0000
   1294 H          60.7277  171.5981  -34.7242 H       215        0    0.0000
   1295 H          59.1816  172.6967  -36.3853 H       215        0    0.0000
   1296 H          60.1947  174.1362  -36.3805 H       215        0    0.0000
   1297 C          61.1046  172.4229  -37.3837 C.3     216        0    0.0000
   1298 C          60.5993  172.7790  -38.7861 C.3     216        0    0.0000
   1299 H          62.1357  172.7745  -37.2547 H       216        0    0.0000
   1300 H          61.1251  171.3334  -37.2567 H       216        0    0.0000
   1301 H          60.7985  173.8363  -39.0004 H       216        0    0.0000
   1302 H          61.1426  172.1969  -39.5408 H       216        0    0.0000
   1303 C          59.0636  172.5108  -38.9503 C.3     217        0    0.0000
   1304 C          58.4948  173.1506  -40.2216 C.3     217        0    0.0000
   1305 H          58.8936  171.4271  -38.9661 H       217        0    0.0000
   1306 H          58.5405  172.8988  -38.0675 H       217        0    0.0000
   1307 H          57.7734  172.4722  -40.6937 H       217        0    0.0000
   1308 H          57.9470  174.0668  -39.9688 H       217        0    0.0000
   1309 C          59.6138  173.5016  -41.2618 C.3     218        0    0.0000
   1310 C          59.0513  174.1913  -42.5096 C.3     218        0    0.0000
   1311 H          60.3566  174.1476  -40.7776 H       218        0    0.0000
   1312 H          60.1355  172.5790  -41.5449 H       218        0    0.0000
   1313 H          59.8570  174.3830  -43.2290 H       218        0    0.0000
   1314 H          58.3313  173.5327  -43.0110 H       218        0    0.0000
   1315 C          58.3434  175.5482  -42.1702 C.3     219        0    0.0000
   1316 C          58.8241  176.6943  -43.0672 C.3     219        0    0.0000
   1317 H          57.2593  175.4175  -42.2754 H       219        0    0.0000
   1318 H          58.5307  175.7910  -41.1169 H       219        0    0.0000
   1319 H          59.9083  176.8250  -42.9619 H       219        0    0.0000
   1320 H          58.6368  176.4515  -44.1205 H       219        0    0.0000
   1321 H          58.3320  177.6378  -42.8312 H       219        0    0.0000
   1322 H          -0.7202   35.8687  -40.4349 H         0        0    0.0000
@<TRIPOS>BOND
     1     1     2      1
     2     1     3      1
     3     1     4      1
     4     1  1322      H
     5     2     5      1
     6     2     6      1
     7     2     7      1
     8     7     8      1
     9     7     9      1
    10     7    10      1
    11     8    11      1
    12     8    12      1
    13     8    13      1
    14    13    14      1
    15    13    15      1
    16    13    16      1
    17    14    17      1
    18    14    18      1
    19    14    19      1
    20    19    20      1
    21    19    21      1
    22    19    22      1
    23    20    23      1
    24    20    24      1
    25    20    25      1
    26    25    26      1
    27    25    27      1
    28    25    28      1
    29    26    29      1
    30    26    30      1
    31    26    31      1
    32    31    32      1
    33    31    33      1
    34    31    34      1
    35    32    35      1
    36    32    36      1
    37    32    37      1
    38    37    38      1
    39    37    39      1
    40    37    40      1
    41    38    41      1
    42    38    42      1
    43    38    43      1
    44    43    44      1
    45    43    45      1
    46    43    46      1
    47    44    47      1
    48    44    48      1
    49    44    49      1
    50    49    50      1
    51    49    51      1
    52    49    52      1
    53    50    53      1
    54    50    54      1
    55    50    55      1
    56    55    56      1
    57    55    57      1
    58    55    58      1
    59    56    59      1
    60    56    60      1
    61    56    61      1
    62    61    62      1
    63    61    63      1
    64    61    64      1
    65    62    65      1
    66    62    66      1
    67    62    67      1
    68    67    68      1
    69    67    69      1
    70    67    70      1
    71    68    71      1
    72    68    72      1
    73    68    73      1
    74    73    74      1
    75    73    75      1
    76    73    76      1
    77    74    77      1
    78    74    78      1
    79    74    79      1
    80    79    80      1
    81    79    81      1
    82    79    82      1
    83    80    83      1
    84    80    84      1
    85    80    85      1
    86    85    86      1
    87    85    87      1
    88    85    88      1
    89    86    89      1
    90    86    90      1
    91    86    91      1
    92    91    92      1
    93    91    93      1
    94    91    94      1
    95    92    95      1
    96    92    96      1
    97    92    97      1
    98    97    98      1
    99    97    99      1
   100    97   100      1
   101    98   101      1
   102    98   102      1
   103    98   103      1
   104   103   104      1
   105   103   105      1
   106   103   106      1
   107   104   107      1
   108   104   108      1
   109   104   109      1
   110   109   110      1
   111   109   111      1
   112   109   112      1
   113   110   113      1
   114   110   114      1
   115   110   115      1
   116   115   116      1
   117   115   117      1
   118   115   118      1
   119   116   119      1
   120   116   120      1
   121   116   121      1
   122   121   122      1
   123   121   123      1
   124   121   124      1
   125   122   125      1
   126   122   126      1
   127   122   127      1
   128   127   128      1
   129   127   129      1
   130   127   130      1
   131   128   131      1
   132   128   132      1
   133   128   133      1
   134   133   134      1
   135   133   135      1
   136   133   136      1
   137   134   137      1
   138   134   138      1
   139   134   139      1
   140   139   140      1
   141   139   141      1
   142   139   142      1
   143   140   143      1
   144   140   144      1
   145   140   145      1
   146   145   146      1
   147   145   147      1
   148   145   148      1
   149   146   149      1
   150   146   150      1
   151   146   151      1
   152   151   152      1
   153   151   153      1
   154   151   154      1
   155   152   155      1
   156   152   156      1
   157   152   157      1
   158   157   158      1
   159   157   159      1
   160   157   160      1
   161   158   161      1
   162   158   162      1
   163   158   163      1
   164   163   164      1
   165   163   165      1
   166   163   166      1
   167   164   167      1
   168   164   168      1
   169   164   169      1
   170   169   170      1
   171   169   171      1
   172   169   172      1
   173   170   173      1
   174   170   174      1
   175   170   175      1
   176   175   176      1
   177   175   177      1
   178   175   178      1
   179   176   179      1
   180   176   180      1
   181   176   181      1
   182   181   182      1
   183   181   183      1
   184   181   184      1
   185   182   185      1
   186   182   186      1
   187   182   187      1
   188   187   188      1
   189   187   189      1
   190   187   190      1
   191   188   191      1
   192   188   192      1
   193   188   193      1
   194   193   194      1
   195   193   195      1
   196   193   196      1
   197   194   197      1
   198   194   198      1
   199   194   199      1
   200   199   200      1
   201   199   201      1
   202   199   202      1
   203   200   203      1
   204   200   204      1
   205   200   205      1
   206   205   206      1
   207   205   207      1
   208   205   208      1
   209   206   209      1
   210   206   210      1
   211   206   211      1
   212   211   212      1
   213   211   213      1
   214   211   214      1
   215   212   215      1
   216   212   216      1
   217   212   217      1
   218   217   218      1
   219   217   219      1
   220   217   220      1
   221   218   221      1
   222   218   222      1
   223   218   223      1
   224   223   224      1
   225   223   225      1
   226   223   226      1
   227   224   227      1
   228   224   228      1
   229   224   229      1
   230   229   230      1
   231   229   231      1
   232   229   232      1
   233   230   233      1
   234   230   234      1
   235   230   235      1
   236   235   236      1
   237   235   237      1
   238   235   238      1
   239   236   239      1
   240   236   240      1
   241   236   241      1
   242   241   242      1
   243   241   243      1
   244   241   244      1
   245   242   245      1
   246   242   246      1
   247   242   247      1
   248   247   248      1
   249   247   249      1
   250   247   250      1
   251   248   251      1
   252   248   252      1
   253   248   253      1
   254   253   254      1
   255   253   255      1
   256   253   256      1
   257   254   257      1
   258   254   258      1
   259   254   259      1
   260   259   260      1
   261   259   261      1
   262   259   262      1
   263   260   263      1
   264   260   264      1
   265   260   265      1
   266   265   266      1
   267   265   267      1
   268   265   268      1
   269   266   269      1
   270   266   270      1
   271   266   271      1
   272   271   272      1
   273   271   273      1
   274   271   274      1
   275   272   275      1
   276   272   276      1
   277   272   277      1
   278   277   278      1
   279   277   279      1
   280   277   280      1
   281   278   281      1
   282   278   282      1
   283   278   283      1
   284   283   284      1
   285   283   285      1
   286   283   286      1
   287   284   287      1
   288   284   288      1
   289   284   289      1
   290   289   290      1
   291   289   291      1
   292   289   292      1
   293   290   293      1
   294   290   294      1
   295   290   295      1
   296   295   296      1
   297   295   297      1
   298   295   298      1
   299   296   299      1
   300   296   300      1
   301   296   301      1
   302   301   302      1
   303   301   303      1
   304   301   304      1
   305   302   305      1
   306   302   306      1
   307   302   307      1
   308   307   308      1
   309   307   309      1
   310   307   310      1
   311   308   311      1
   312   308   312      1
   313   308   313      1
   314   313   314      1
   315   313   315      1
   316   313   316      1
   317   314   317      1
   318   314   318      1
   319   314   319      1
   320   319   320      1
   321   319   321      1
   322   319   322      1
   323   320   323      1
   324   320   324      1
   325   320   325      1
   326   325   326      1
   327   325   327      1
   328   325   328      1
   329   326   329      1
   330   326   330      1
   331   326   331      1
   332   331   332      1
   333   331   333      1
   334   331   334      1
   335   332   335      1
   336   332   336      1
   337   332   337      1
   338   337   338      1
   339   337   339      1
   340   337   340      1
   341   338   341      1
   342   338   342      1
   343   338   343      1
   344   343   344      1
   345   343   345      1
   346   343   346      1
   347   344   347      1
   348   344   348      1
   349   344   349      1
   350   349   350      1
   351   349   351      1
   352   349   352      1
   353   350   353      1
   354   350   354      1
   355   350   355      1
   356   355   356      1
   357   355   357      1
   358   355   358      1
   359   356   359      1
   360   356   360      1
   361   356   361      1
   362   361   362      1
   363   361   363      1
   364   361   364      1
   365   362   365      1
   366   362   366      1
   367   362   367      1
   368   367   368      1
   369   367   369      1
   370   367   370      1
   371   368   371      1
   372   368   372      1
   373   368   373      1
   374   373   374      1
   375   373   375      1
   376   373   376      1
   377   374   377      1
   378   374   378      1
   379   374   379      1
   380   379   380      1
   381   379   381      1
   382   379   382      1
   383   380   383      1
   384   380   384      1
   385   380   385      1
   386   385   386      1
   387   385   387      1
   388   385   388      1
   389   386   389      1
   390   386   390      1
   391   386   391      1
   392   391   392      1
   393   391   393      1
   394   391   394      1
   395   392   395      1
   396   392   396      1
   397   392   397      1
   398   397   398      1
   399   397   399      1
   400   397   400      1
   401   398   401      1
   402   398   402      1
   403   398   403      1
   404   403   404      1
   405   403   405      1
   406   403   406      1
   407   404   407      1
   408   404   408      1
   409   404   409      1
   410   409   410      1
   411   409   411      1
   412   409   412      1
   413   410   413      1
   414   410   414      1
   415   410   415      1
   416   415   416      1
   417   415   417      1
   418   415   418      1
   419   416   419      1
   420   416   420      1
   421   416   421      1
   422   421   422      1
   423   421   423      1
   424   421   424      1
   425   422   425      1
   426   422   426      1
   427   422   427      1
   428   427   428      1
   429   427   429      1
   430   427   430      1
   431   428   431      1
   432   428   432      1
   433   428   433      1
   434   433   434      1
   435   433   435      1
   436   433   436      1
   437   434   437      1
   438   434   438      1
   439   434   439      1
   440   439   440      1
   441   439   441      1
   442   439   442      1
   443   440   443      1
   444   440   444      1
   445   440   445      1
   446   445   446      1
   447   445   447      1
   448   445   448      1
   449   446   449      1
   450   446   450      1
   451   446   451      1
   452   451   452      1
   453   451   453      1
   454   451   454      1
   455   452   455      1
   456   452   456      1
   457   452   457      1
   458   457   458      1
   459   457   459      1
   460   457   460      1
   461   458   461      1
   462   458   462      1
   463   458   463      1
   464   463   464      1
   465   463   465      1
   466   463   466      1
   467   464   467      1
   468   464   468      1
   469   464   469      1
   470   469   470      1
   471   469   471      1
   472   469   472      1
   473   470   473      1
   474   470   474      1
   475   470   475      1
   476   475   476      1
   477   475   477      1
   478   475   478      1
   479   476   479      1
   480   476   480      1
   481   476   481      1
   482   481   482      1
   483   481   483      1
   484   481   484      1
   485   482   485      1
   486   482   486      1
   487   482   487      1
   488   487   488      1
   489   487   489      1
   490   487   490      1
   491   488   491      1
   492   488   492      1
   493   488   493      1
   494   493   494      1
   495   493   495      1
   496   493   496      1
   497   494   497      1
   498   494   498      1
   499   494   499      1
   500   499   500      1
   501   499   501      1
   502   499   502      1
   503   500   503      1
   504   500   504      1
   505   500   505      1
   506   505   506      1
   507   505   507      1
   508   505   508      1
   509   506   509      1
   510   506   510      1
   511   506   511      1
   512   511   512      1
   513   511   513      1
   514   511   514      1
   515   512   515      1
   516   512   516      1
   517   512   517      1
   518   517   518      1
   519   517   519      1
   520   517   520      1
   521   518   521      1
   522   518   522      1
   523   518   523      1
   524   523   524      1
   525   523   525      1
   526   523   526      1
   527   524   527      1
   528   524   528      1
   529   524   529      1
   530   529   530      1
   531   529   531      1
   532   529   532      1
   533   530   533      1
   534   530   534      1
   535   530   535      1
   536   535   536      1
   537   535   537      1
   538   535   538      1
   539   536   539      1
   540   536   540      1
   541   536   541      1
   542   541   542      1
   543   541   543      1
   544   541   544      1
   545   542   545      1
   546   542   546      1
   547   542   547      1
   548   547   548      1
   549   547   549      1
   550   547   550      1
   551   548   551      1
   552   548   552      1
   553   548   553      1
   554   553   554      1
   555   553   555      1
   556   553   556      1
   557   554   557      1
   558   554   558      1
   559   554   559      1
   560   559   560      1
   561   559   561      1
   562   559   562      1
   563   560   563      1
   564   560   564      1
   565   560   565      1
   566   565   566      1
   567   565   567      1
   568   565   568      1
   569   566   569      1
   570   566   570      1
   571   566   571      1
   572   571   572      1
   573   571   573      1
   574   571   574      1
   575   572   575      1
   576   572   576      1
   577   572   577      1
   578   577   578      1
   579   577   579      1
   580   577   580      1
   581   578   581      1
   582   578   582      1
   583   578   583      1
   584   583   584      1
   585   583   585      1
   586   583   586      1
   587   584   587      1
   588   584   588      1
   589   584   589      1
   590   589   590      1
   591   589   591      1
   592   589   592      1
   593   590   593      1
   594   590   594      1
   595   590   595      1
   596   595   596      1
   597   595   597      1
   598   595   598      1
   599   596   599      1
   600   596   600      1
   601   596   601      1
   602   601   602      1
   603   601   603      1
   604   601   604      1
   605   602   605      1
   606   602   606      1
   607   602   607      1
   608   607   608      1
   609   607   609      1
   610   607   610      1
   611   608   611      1
   612   608   612      1
   613   608   613      1
   614   613   614      1
   615   613   615      1
   616   613   616      1
   617   614   617      1
   618   614   618      1
   619   614   619      1
   620   619   620      1
   621   619   621      1
   622   619   622      1
   623   620   623      1
   624   620   624      1
   625   620   625      1
   626   625   626      1
   627   625   627      1
   628   625   628      1
   629   626   629      1
   630   626   630      1
   631   626   631      1
   632   631   632      1
   633   631   633      1
   634   631   634      1
   635   632   635      1
   636   632   636      1
   637   632   637      1
   638   637   638      1
   639   637   639      1
   640   637   640      1
   641   638   641      1
   642   638   642      1
   643   638   643      1
   644   643   644      1
   645   643   645      1
   646   643   646      1
   647   644   647      1
   648   644   648      1
   649   644   649      1
   650   649   650      1
   651   649   651      1
   652   649   652      1
   653   650   653      1
   654   650   654      1
   655   650   655      1
   656   655   656      1
   657   655   657      1
   658   655   658      1
   659   656   659      1
   660   656   660      1
   661   656   661      1
   662   661   662      1
   663   661   663      1
   664   661   664      1
   665   662   665      1
   666   662   666      1
   667   662   667      1
   668   667   668      1
   669   667   669      1
   670   667   670      1
   671   668   671      1
   672   668   672      1
   673   668   673      1
   674   673   674      1
   675   673   675      1
   676   673   676      1
   677   674   677      1
   678   674   678      1
   679   674   679      1
   680   679   680      1
   681   679   681      1
   682   679   682      1
   683   680   683      1
   684   680   684      1
   685   680   685      1
   686   685   686      1
   687   685   687      1
   688   685   688      1
   689   686   689      1
   690   686   690      1
   691   686   691      1
   692   691   692      1
   693   691   693      1
   694   691   694      1
   695   692   695      1
   696   692   696      1
   697   692   697      1
   698   697   698      1
   699   697   699      1
   700   697   700      1
   701   698   701      1
   702   698   702      1
   703   698   703      1
   704   703   704      1
   705   703   705      1
   706   703   706      1
   707   704   707      1
   708   704   708      1
   709   704   709      1
   710   709   710      1
   711   709   711      1
   712   709   712      1
   713   710   713      1
   714   710   714      1
   715   710   715      1
   716   715   716      1
   717   715   717      1
   718   715   718      1
   719   716   719      1
   720   716   720      1
   721   716   721      1
   722   721   722      1
   723   721   723      1
   724   721   724      1
   725   722   725      1
   726   722   726      1
   727   722   727      1
   728   727   728      1
   729   727   729      1
   730   727   730      1
   731   728   731      1
   732   728   732      1
   733   728   733      1
   734   733   734      1
   735   733   735      1
   736   733   736      1
   737   734   737      1
   738   734   738      1
   739   734   739      1
   740   739   740      1
   741   739   741      1
   742   739   742      1
   743   740   743      1
   744   740   744      1
   745   740   745      1
   746   745   746      1
   747   745   747      1
   748   745   748      1
   749   746   749      1
   750   746   750      1
   751   746   751      1
   752   751   752      1
   753   751   753      1
   754   751   754      1
   755   752   755      1
   756   752   756      1
   757   752   757      1
   758   757   758      1
   759   757   759      1
   760   757   760      1
   761   758   761      1
   762   758   762      1
   763   758   763      1
   764   763   764      1
   765   763   765      1
   766   763   766      1
   767   764   767      1
   768   764   768      1
   769   764   769      1
   770   769   770      1
   771   769   771      1
   772   769   772      1
   773   770   773      1
   774   770   774      1
   775   770   775      1
   776   775   776      1
   777   775   777      1
   778   775   778      1
   779   776   779      1
   780   776   780      1
   781   776   781      1
   782   781   782      1
   783   781   783      1
   784   781   784      1
   785   782   785      1
   786   782   786      1
   787   782   787      1
   788   787   788      1
   789   787   789      1
   790   787   790      1
   791   788   791      1
   792   788   792      1
   793   788   793      1
   794   793   794      1
   795   793   795      1
   796   793   796      1
   797   794   797      1
   798   794   798      1
   799   794   799      1
   800   799   800      1
   801   799   801      1
   802   799   802      1
   803   800   803      1
   804   800   804      1
   805   800   805      1
   806   805   806      1
   807   805   807      1
   808   805   808      1
   809   806   809      1
   810   806   810      1
   811   806   811      1
   812   811   812      1
   813   811   813      1
   814   811   814      1
   815   812   815      1
   816   812   816      1
   817   812   817      1
   818   817   818      1
   819   817   819      1
   820   817   820      1
   821   818   821      1
   822   818   822      1
   823   818   823      1
   824   823   824      1
   825   823   825      1
   826   823   826      1
   827   824   827      1
   828   824   828      1
   829   824   829      1
   830   829   830      1
   831   829   831      1
   832   829   832      1
   833   830   833      1
   834   830   834      1
   835   830   835      1
   836   835   836      1
   837   835   837      1
   838   835   838      1
   839   836   839      1
   840   836   840      1
   841   836   841      1
   842   841   842      1
   843   841   843      1
   844   841   844      1
   845   842   845      1
   846   842   846      1
   847   842   847      1
   848   847   848      1
   849   847   849      1
   850   847   850      1
   851   848   851      1
   852   848   852      1
   853   848   853      1
   854   853   854      1
   855   853   855      1
   856   853   856      1
   857   854   857      1
   858   854   858      1
   859   854   859      1
   860   859   860      1
   861   859   861      1
   862   859   862      1
   863   860   863      1
   864   860   864      1
   865   860   865      1
   866   865   866      1
   867   865   867      1
   868   865   868      1
   869   866   869      1
   870   866   870      1
   871   866   871      1
   872   871   872      1
   873   871   873      1
   874   871   874      1
   875   872   875      1
   876   872   876      1
   877   872   877      1
   878   877   878      1
   879   877   879      1
   880   877   880      1
   881   878   881      1
   882   878   882      1
   883   878   883      1
   884   883   884      1
   885   883   885      1
   886   883   886      1
   887   884   887      1
   888   884   888      1
   889   884   889      1
   890   889   890      1
   891   889   891      1
   892   889   892      1
   893   890   893      1
   894   890   894      1
   895   890   895      1
   896   895   896      1
   897   895   897      1
   898   895   898      1
   899   896   899      1
   900   896   900      1
   901   896   901      1
   902   901   902      1
   903   901   903      1
   904   901   904      1
   905   902   905      1
   906   902   906      1
   907   902   907      1
   908   907   908      1
   909   907   909      1
   910   907   910      1
   911   908   911      1
   912   908   912      1
   913   908   913      1
   914   913   914      1
   915   913   915      1
   916   913   916      1
   917   914   917      1
   918   914   918      1
   919   914   919      1
   920   919   920      1
   921   919   921      1
   922   919   922      1
   923   920   923      1
   924   920   924      1
   925   920   925      1
   926   925   926      1
   927   925   927      1
   928   925   928      1
   929   926   929      1
   930   926   930      1
   931   926   931      1
   932   931   932      1
   933   931   933      1
   934   931   934      1
   935   932   935      1
   936   932   936      1
   937   932   937      1
   938   937   938      1
   939   937   939      1
   940   937   940      1
   941   938   941      1
   942   938   942      1
   943   938   943      1
   944   943   944      1
   945   943   945      1
   946   943   946      1
   947   944   947      1
   948   944   948      1
   949   944   949      1
   950   949   950      1
   951   949   951      1
   952   949   952      1
   953   950   953      1
   954   950   954      1
   955   950   955      1
   956   955   956      1
   957   955   957      1
   958   955   958      1
   959   956   959      1
   960   956   960      1
   961   956   961      1
   962   961   962      1
   963   961   963      1
   964   961   964      1
   965   962   965      1
   966   962   966      1
   967   962   967      1
   968   967   968      1
   969   967   969      1
   970   967   970      1
   971   968   971      1
   972   968   972      1
   973   968   973      1
   974   973   974      1
   975   973   975      1
   976   973   976      1
   977   974   977      1
   978   974   978      1
   979   974   979      1
   980   979   980      1
   981   979   981      1
   982   979   982      1
   983   980   983      1
   984   980   984      1
   985   980   985      1
   986   985   986      1
   987   985   987      1
   988   985   988      1
   989   986   989      1
   990   986   990      1
   991   986   991      1
   992   991   992      1
   993   991   993      1
   994   991   994      1
   995   992   995      1
   996   992   996      1
   997   992   997      1
   998   997   998      1
   999   997   999      1
  1000   997  1000      1
  1001   998  1001      1
  1002   998  1002      1
  1003   998  1003      1
  1004  1003  1004      1
  1005  1003  1005      1
  1006  1003  1006      1
  1007  1004  1007      1
  1008  1004  1008      1
  1009  1004  1009      1
  1010  1009  1010      1
  1011  1009  1011      1
  1012  1009  1012      1
  1013  1010  1013      1
  1014  1010  1014      1
  1015  1010  1015      1
  1016  1015  1016      1
  1017  1015  1017      1
  1018  1015  1018      1
  1019  1016  1019      1
  1020  1016  1020      1
  1021  1016  1021      1
  1022  1021  1022      1
  1023  1021  1023      1
  1024  1021  1024      1
  1025  1022  1025      1
  1026  1022  1026      1
  1027  1022  1027      1
  1028  1027  1028      1
  1029  1027  1029      1
  1030  1027  1030      1
  1031  1028  1031      1
  1032  1028  1032      1
  1033  1028  1033      1
  1034  1033  1034      1
  1035  1033  1035      1
  1036  1033  1036      1
  1037  1034  1037      1
  1038  1034  1038      1
  1039  1034  1039      1
  1040  1039  1040      1
  1041  1039  1041      1
  1042  1039  1042      1
  1043  1040  1043      1
  1044  1040  1044      1
  1045  1040  1045      1
  1046  1045  1046      1
  1047  1045  1047      1
  1048  1045  1048      1
  1049  1046  1049      1
  1050  1046  1050      1
  1051  1046  1051      1
  1052  1051  1052      1
  1053  1051  1053      1
  1054  1051  1054      1
  1055  1052  1055      1
  1056  1052  1056      1
  1057  1052  1057      1
  1058  1057  1058      1
  1059  1057  1059      1
  1060  1057  1060      1
  1061  1058  1061      1
  1062  1058  1062      1
  1063  1058  1063      1
  1064  1063  1064      1
  1065  1063  1065      1
  1066  1063  1066      1
  1067  1064  1067      1
  1068  1064  1068      1
  1069  1064  1069      1
  1070  1069  1070      1
  1071  1069  1071      1
  1072  1069  1072      1
  1073  1070  1073      1
  1074  1070  1074      1
  1075  1070  1075      1
  1076  1075  1076      1
  1077  1075  1077      1
  1078  1075  1078      1
  1079  1076  1079      1
  1080  1076  1080      1
  1081  1076  1081      1
  1082  1081  1082      1
  1083  1081  1083      1
  1084  1081  1084      1
  1085  1082  1085      1
  1086  1082  1086      1
  1087  1082  1087      1
  1088  1087  1088      1
  1089  1087  1089      1
  1090  1087  1090      1
  1091  1088  1091      1
  1092  1088  1092      1
  1093  1088  1093      1
  1094  1093  1094      1
  1095  1093  1095      1
  1096  1093  1096      1
  1097  1094  1097      1
  1098  1094  1098      1
  1099  1094  1099      1
  1100  1099  1100      1
  1101  1099  1101      1
  1102  1099  1102      1
  1103  1100  1103      1
  1104  1100  1104      1
  1105  1100  1105      1
  1106  1105  1106      1
  1107  1105  1107      1
  1108  1105  1108      1
  1109  1106  1109      1
  1110  1106  1110      1
  1111  1106  1111      1
  1112  1111  1112      1
  1113  1111  1113      1
  1114  1111  1114      1
  1115  1112  1115      1
  1116  1112  1116      1
  1117  1112  1117      1
  1118  1117  1118      1
  1119  1117  1119      1
  1120  1117  1120      1
  1121  1118  1121      1
  1122  1118  1122      1
  1123  1118  1123      1
  1124  1123  1124      1
  1125  1123  1125      1
  1126  1123  1126      1
  1127  1124  1127      1
  1128  1124  1128      1
  1129  1124  1129      1
  1130  1129  1130      1
  1131  1129  1131      1
  1132  1129  1132      1
  1133  1130  1133      1
  1134  1130  1134      1
  1135  1130  1135      1
  1136  1135  1136      1
  1137  1135  1137      1
  1138  1135  1138      1
  1139  1136  1139      1
  1140  1136  1140      1
  1141  1136  1141      1
  1142  1141  1142      1
  1143  1141  1143      1
  1144  1141  1144      1
  1145  1142  1145      1
  1146  1142  1146      1
  1147  1142  1147      1
  1148  1147  1148      1
  1149  1147  1149      1
  1150  1147  1150      1
  1151  1148  1151      1
  1152  1148  1152      1
  1153  1148  1153      1
  1154  1153  1154      1
  1155  1153  1155      1
  1156  1153  1156      1
  1157  1154  1157      1
  1158  1154  1158      1
  1159  1154  1159      1
  1160  1159  1160      1
  1161  1159  1161      1
  1162  1159  1162      1
  1163  1160  1163      1
  1164  1160  1164      1
  1165  1160  1165      1
  1166  1165  1166      1
  1167  1165  1167      1
  1168  1165  1168      1
  1169  1166  1169      1
  1170  1166  1170      1
  1171  1166  1171      1
  1172  1171  1172      1
  1173  1171  1173      1
  1174  1171  1174      1
  1175  1172  1175      1
  1176  1172  1176      1
  1177  1172  1177      1
  1178  1177  1178      1
  1179  1177  1179      1
  1180  1177  1180      1
  1181  1178  1181      1
  1182  1178  1182      1
  1183  1178  1183      1
  1184  1183  1184      1
  1185  1183  1185      1
  1186  1183  1186      1
  1187  1184  1187      1
  1188  1184  1188      1
  1189  1184  1189      1
  1190  1189  1190      1
  1191  1189  1191      1
  1192  1189  1192      1
  1193  1190  1193      1
  1194  1190  1194      1
  1195  1190  1195      1
  1196  1195  1196      1
  1197  1195  1197      1
  1198  1195  1198      1
  1199  1196  1199      1
  1200  1196  1200      1
  1201  1196  1201      1
  1202  1201  1202      1
  1203  1201  1203      1
  1204  1201  1204      1
  1205  1202  1205      1
  1206  1202  1206      1
  1207  1202  1207      1
  1208  1207  1208      1
  1209  1207  1209      1
  1210  1207  1210      1
  1211  1208  1211      1
  1212  1208  1212      1
  1213  1208  1213      1
  1214  1213  1214      1
  1215  1213  1215      1
  1216  1213  1216      1
  1217  1214  1217      1
  1218  1214  1218      1
  1219  1214  1219      1
  1220  1219  1220      1
  1221  1219  1221      1
  1222  1219  1222      1
  1223  1220  1223      1
  1224  1220  1224      1
  1225  1220  1225      1
  1226  1225  1226      1
  1227  1225  1227      1
  1228  1225  1228      1
  1229  1226  1229      1
  1230  1226  1230      1
  1231  1226  1231      1
  1232  1231  1232      1
  1233  1231  1233      1
  1234  1231  1234      1
  1235  1232  1235      1
  1236  1232  1236      1
  1237  1232  1237      1
  1238  1237  1238      1
  1239  1237  1239      1
  1240  1237  1240      1
  1241  1238  1241      1
  1242  1238  1242      1
  1243  1238  1243      1
  1244  1243  1244      1
  1245  1243  1245      1
  1246  1243  1246      1
  1247  1244  1247      1
  1248  1244  1248      1
  1249  1244  1249      1
  1250  1249  1250      1
  1251  1249  1251      1
  1252  1249  1252      1
  1253  1250  1253      1
  1254  1250  1254      1
  1255  1250  1255      1
  1256  1255  1256      1
  1257  1255  1257      1
  1258  1255  1258      1
  1259  1256  1259      1
  1260  1256  1260      1
  1261  1256  1261      1
  1262  1261  1262      1
  1263  1261  1263      1
  1264  1261  1264      1
  1265  1262  1265      1
  1266  1262  1266      1
  1267  1262  1267      1
  1268  1267  1268      1
  1269  1267  1269      1
  1270  1267  1270      1
  1271  1268  1271      1
  1272  1268  1272      1
  1273  1268  1273      1
  1274  1273  1274      1
  1275  1273  1275      1
  1276  1273  1276      1
  1277  1274  1277      1
  1278  1274  1278      1
  1279  1274  1279      1
  1280  1279  1280      1
  1281  1279  1281      1
  1282  1279  1282      1
  1283  1280  1283      1
  1284  1280  1284      1
  1285  1280  1285      1
  1286  1285  1286      1
  1287  1285  1287      1
  1288  1285  1288      1
  1289  1286  1289      1
  1290  1286  1290      1
  1291  1286  1291      1
  1292  1291  1292      1
  1293  1291  1293      1
  1294  1291  1294      1
  1295  1292  1295      1
  1296  1292  1296      1
  1297  1292  1297      1
  1298  1297  1298      1
  1299  1297  1299      1
  1300  1297  1300      1
  1301  1298  1301      1
  1302  1298  1302      1
  1303  1298  1303      1
  1304  1303  1304      1
  1305  1303  1305      1
  1306  1303  1306      1
  1307  1304  1307      1
  1308  1304  1308      1
  1309  1304  1309      1
  1310  1309  1310      1
  1311  1309  1311      1
  1312  1309  1312      1
  1313  1310  1313      1
  1314  1310  1314      1
  1315  1310  1315      1
  1316  1315  1316      1
  1317  1315  1317      1
  1318  1315  1318      1
  1319  1316  1319      1
  1320  1316  1320      1
  1321  1316  1321      H
