###
### Created by PolyChef-cpp17 on Thu Feb 27 19:40:30 2025
###

@<TRIPOS>MOLECULE
NO_INFO
170 169 1 0 0
SMALL
USER_CHARGES


@<TRIPOS>ATOM
      1 C         159.2798  139.7887  -39.3449 C.3       0        0    0.0000
      2 C         157.8706  139.6282  -38.7641 C.3       0        0    0.0000
      3 H         159.9271  138.9766  -38.9914 H         0        0    0.0000
      4 H         159.7280  140.7255  -38.9913 H         0        0    0.0000
      5 H         157.3722  140.6041  -38.7110 H         0        0    0.0000
      6 H         157.2611  138.9987  -39.4242 H         0        0    0.0000
      7 C         157.8873  138.9908  -37.3320 C.3       1        0    0.0000
      8 C         159.1640  139.3360  -36.5575 C.3       1        0    0.0000
      9 H         157.0062  139.3398  -36.7793 H         1        0    0.0000
     10 H         157.7883  137.9025  -37.4281 H         1        0    0.0000
     11 H         160.0448  139.1656  -37.1890 H         1        0    0.0000
     12 H         159.1673  140.4007  -36.2929 H         1        0    0.0000
     13 C         159.3109  138.4892  -35.2464 C.3       2        0    0.0000
     14 C         160.1997  139.1792  -34.2058 C.3       2        0    0.0000
     15 H         158.3128  138.3087  -34.8284 H         2        0    0.0000
     16 H         159.7267  137.5073  -35.5044 H         2        0    0.0000
     17 H         161.2560  139.0681  -34.4802 H         2        0    0.0000
     18 H         159.9906  140.2560  -34.1872 H         2        0    0.0000
     19 C         159.9882  138.5985  -32.7651 C.3       3        0    0.0000
     20 C         160.6021  139.4929  -31.6824 C.3       3        0    0.0000
     21 H         158.9125  138.4770  -32.5873 H         3        0    0.0000
     22 H         160.4303  137.5955  -32.7197 H         3        0    0.0000
     23 H         161.6914  139.5382  -31.8049 H         3        0    0.0000
     24 H         160.2303  140.5197  -31.7873 H         3        0    0.0000
     25 C         160.2771  138.9832  -30.2360 C.3       4        0    0.0000
     26 C         160.8710  139.8907  -29.1532 C.3       4        0    0.0000
     27 H         159.1880  138.9213  -30.1193 H         4        0    0.0000
     28 H         160.6642  137.9626  -30.1255 H         4        0    0.0000
     29 H         161.9609  139.9468  -29.2655 H         4        0    0.0000
     30 H         160.4895  140.9128  -29.2682 H         4        0    0.0000
     31 C         160.5374  139.3866  -27.7068 C.3       5        0    0.0000
     32 C         161.1470  140.2838  -26.6240 C.3       5        0    0.0000
     33 H         159.4474  139.3436  -27.5900 H         5        0    0.0000
     34 H         160.9069  138.3595  -27.5963 H         5        0    0.0000
     35 H         162.2370  140.3264  -26.7404 H         5        0    0.0000
     36 H         160.7779  141.3109  -26.7348 H         5        0    0.0000
     37 C         160.8127  139.7801  -25.1776 C.3       6        0    0.0000
     38 C         161.4299  140.6721  -24.0948 C.3       6        0    0.0000
     39 H         159.7227  139.7439  -25.0589 H         6        0    0.0000
     40 H         161.1758  138.7506  -25.0689 H         6        0    0.0000
     41 H         162.5199  140.7084  -24.2135 H         6        0    0.0000
     42 H         161.0667  141.7016  -24.2034 H         6        0    0.0000
     43 C         161.0957  140.1683  -22.6484 C.3       7        0    0.0000
     44 C         161.2161  141.2827  -21.6030 C.3       7        0    0.0000
     45 H         160.0790  139.7562  -22.6435 H         7        0    0.0000
     46 H         161.7718  139.3419  -22.3967 H         7        0    0.0000
     47 H         162.2514  141.6420  -21.5537 H         7        0    0.0000
     48 H         160.5983  142.1409  -21.8951 H         7        0    0.0000
     49 C         160.7777  140.8074  -20.1749 C.3       8        0    0.0000
     50 C         161.8332  141.1211  -19.1088 C.3       8        0    0.0000
     51 H         159.8274  141.2914  -19.9174 H         8        0    0.0000
     52 H         160.5833  139.7281  -20.2056 H         8        0    0.0000
     53 H         162.8382  140.9409  -19.5100 H         8        0    0.0000
     54 H         161.7885  142.1828  -18.8363 H         8        0    0.0000
     55 C         161.6440  140.2586  -17.8136 C.3       9        0    0.0000
     56 C         161.4055  141.1223  -16.5702 C.3       9        0    0.0000
     57 H         160.7994  139.5748  -17.9643 H         9        0    0.0000
     58 H         162.5343  139.6332  -17.6721 H         9        0    0.0000
     59 H         162.3555  141.5400  -16.2144 H         9        0    0.0000
     60 H         160.7615  141.9741  -16.8217 H         9        0    0.0000
     61 C         160.7408  140.3134  -15.4034 C.3      10        0    0.0000
     62 C         161.2280  140.7749  -14.0255 C.3      10        0    0.0000
     63 H         159.6514  140.4227  -15.4733 H        10        0    0.0000
     64 H         160.9600  139.2475  -15.5424 H        10        0    0.0000
     65 H         162.3239  140.8212  -14.0101 H        10        0    0.0000
     66 H         160.8668  141.7901  -13.8194 H        10        0    0.0000
     67 C         160.7462  139.8241  -12.8760 C.3      11        0    0.0000
     68 C         161.0602  140.3880  -11.4858 C.3      11        0    0.0000
     69 H         159.6663  139.6616  -12.9808 H        11        0    0.0000
     70 H         161.2258  138.8455  -13.0021 H        11        0    0.0000
     71 H         162.1437  140.5109  -11.3657 H        11        0    0.0000
     72 H         160.6159  141.3849  -11.3751 H        11        0    0.0000
     73 C         160.5258  139.4660  -10.3361 C.3      12        0    0.0000
     74 C         160.8441  140.0274   -8.9460 C.3      12        0    0.0000
     75 H         159.4417  139.3460  -10.4542 H        12        0    0.0000
     76 H         160.9673  138.4681  -10.4489 H        12        0    0.0000
     77 H         161.9280  140.1494   -8.8287 H        12        0    0.0000
     78 H         160.4008  141.0245   -8.8324 H        12        0    0.0000
     79 C         160.3122  139.1040   -7.7962 C.3      13        0    0.0000
     80 C         160.6344  139.6631   -6.4061 C.3      13        0    0.0000
     81 H         159.2277  138.9847   -7.9116 H        13        0    0.0000
     82 H         160.7529  138.1060   -7.9118 H        13        0    0.0000
     83 H         161.7188  139.7839   -6.2913 H        13        0    0.0000
     84 H         160.1924  140.6605   -6.2901 H        13        0    0.0000
     85 C         160.1044  138.7386   -5.2564 C.3      14        0    0.0000
     86 C         160.4250  139.2987   -3.8662 C.3      14        0    0.0000
     87 H         159.0203  138.6168   -5.3720 H        14        0    0.0000
     88 H         160.5475  137.7417   -5.3716 H        14        0    0.0000
     89 H         161.5086  139.4280   -3.7535 H        14        0    0.0000
     90 H         159.9752  140.2924   -3.7481 H        14        0    0.0000
     91 C         159.9048  138.3687   -2.7165 C.3      15        0    0.0000
     92 C         160.2106  138.9370   -1.3264 C.3      15        0    0.0000
     93 H         158.8232  138.2295   -2.8364 H        15        0    0.0000
     94 H         160.3641  137.3786   -2.8275 H        15        0    0.0000
     95 H         161.2931  139.0650   -1.2021 H        15        0    0.0000
     96 H         159.7615  139.9322   -1.2197 H        15        0    0.0000
     97 C         159.6756  138.0152   -0.1768 C.3      16        0    0.0000
     98 C         159.5782  138.7541    1.1624 C.3      16        0    0.0000
     99 H         158.6908  137.6267   -0.4645 H        16        0    0.0000
    100 H         160.3405  137.1480   -0.0805 H        16        0    0.0000
    101 H         159.3069  138.0520    1.9606 H        16        0    0.0000
    102 H         160.5549  139.1750    1.4317 H        16        0    0.0000
    103 C         158.5216  139.9116    1.1269 C.3      17        0    0.0000
    104 C         158.3511  140.5845    2.4933 C.3      17        0    0.0000
    105 H         158.8328  140.6517    0.3793 H        17        0    0.0000
    106 H         157.5618  139.5038    0.7861 H        17        0    0.0000
    107 H         159.2610  141.1384    2.7560 H        17        0    0.0000
    108 H         157.5365  141.3182    2.4524 H        17        0    0.0000
    109 C         158.0432  139.5505    3.6306 C.3      18        0    0.0000
    110 C         157.8206  140.2282    4.9872 C.3      18        0    0.0000
    111 H         157.1555  138.9702    3.3499 H        18        0    0.0000
    112 H         158.8761  138.8397    3.6973 H        18        0    0.0000
    113 H         156.8003  140.0353    5.3412 H        18        0    0.0000
    114 H         158.4997  139.8026    5.7363 H        18        0    0.0000
    115 C         158.0481  141.7779    4.9215 C.3      19        0    0.0000
    116 C         157.5955  142.4862    6.2031 C.3      19        0    0.0000
    117 H         159.1126  141.9716    4.7405 H        19        0    0.0000
    118 H         157.5035  142.1789    4.0577 H        19        0    0.0000
    119 H         158.2139  142.1634    7.0498 H        19        0    0.0000
    120 H         157.7374  143.5696    6.1043 H        19        0    0.0000
    121 C         156.0909  142.2023    6.5392 C.3      20        0    0.0000
    122 C         155.6387  142.9095    7.8215 C.3      20        0    0.0000
    123 H         155.4723  142.5261    5.6929 H        20        0    0.0000
    124 H         155.9487  141.1189    6.6370 H        20        0    0.0000
    125 H         154.5504  142.8268    7.9330 H        20        0    0.0000
    126 H         156.0831  142.4207    8.6974 H        20        0    0.0000
    127 C         156.0341  144.4264    7.8345 C.3      21        0    0.0000
    128 C         155.8792  145.0552    9.2236 C.3      21        0    0.0000
    129 H         157.0713  144.5244    7.4907 H        21        0    0.0000
    130 H         155.4096  144.9608    7.1079 H        21        0    0.0000
    131 H         156.8611  145.1558    9.7026 H        21        0    0.0000
    132 H         155.4671  146.0680    9.1342 H        21        0    0.0000
    133 C         154.9456  144.2103   10.1575 C.3      22        0    0.0000
    134 C         154.7357  144.8740   11.5229 C.3      22        0    0.0000
    135 H         153.9803  144.0671    9.6564 H        22        0    0.0000
    136 H         155.3842  143.2132   10.2873 H        22        0    0.0000
    137 H         153.9870  144.3176   12.1004 H        22        0    0.0000
    138 H         155.6665  144.8443   12.1027 H        22        0    0.0000
    139 C         154.2683  146.3647   11.3934 C.3      23        0    0.0000
    140 C         154.0582  147.0283   12.7589 C.3      23        0    0.0000
    141 H         155.0170  146.9211   10.8160 H        23        0    0.0000
    142 H         153.3374  146.3943   10.8136 H        23        0    0.0000
    143 H         155.0266  147.2149   13.2394 H        23        0    0.0000
    144 H         153.5760  148.0055   12.6320 H        23        0    0.0000
    145 C         153.1795  146.1518   13.7165 C.3      24        0    0.0000
    146 C         153.0854  146.7470   15.1258 C.3      24        0    0.0000
    147 H         152.1768  146.0511   13.2830 H        24        0    0.0000
    148 H         153.6058  145.1420   13.7623 H        24        0    0.0000
    149 H         152.0388  146.7747   15.4533 H        24        0    0.0000
    150 H         153.6222  146.1100   15.8397 H        24        0    0.0000
    151 C         153.6764  148.1972   15.1989 C.3      25        0    0.0000
    152 C         153.6107  148.7804   16.6147 C.3      25        0    0.0000
    153 H         154.7161  148.1733   14.8497 H        25        0    0.0000
    154 H         153.1244  148.8395   14.5015 H        25        0    0.0000
    155 H         154.3638  148.3027   17.2536 H        25        0    0.0000
    156 H         153.8500  149.8508   16.5920 H        25        0    0.0000
    157 C         152.1992  148.5920   17.2700 C.3      26        0    0.0000
    158 C         152.2245  148.8330   18.7834 C.3      26        0    0.0000
    159 H         151.4922  149.2808   16.7912 H        26        0    0.0000
    160 H         151.8430  147.5765   17.0568 H        26        0    0.0000
    161 H         152.5106  149.8709   18.9943 H        26        0    0.0000
    162 H         151.2212  148.6911   19.2038 H        26        0    0.0000
    163 C         153.2216  147.8742   19.5211 C.3      27        0    0.0000
    164 C         152.5651  147.1502   20.7017 C.3      27        0    0.0000
    165 H         153.6086  147.1437   18.7999 H        27        0    0.0000
    166 H         154.0819  148.4590   19.8697 H        27        0    0.0000
    167 H         152.1781  147.8807   21.4229 H        27        0    0.0000
    168 H         151.7048  146.5655   20.3531 H        27        0    0.0000
    169 H         153.2584  146.4836   21.2146 H        27        0    0.0000
    170 H         159.2798  139.7887  -40.4349 H         0        0    0.0000
@<TRIPOS>BOND
     1     1     2      1
     2     1     3      1
     3     1     4      1
     4     1   170      H
     5     2     5      1
     6     2     6      1
     7     2     7      1
     8     7     8      1
     9     7     9      1
    10     7    10      1
    11     8    11      1
    12     8    12      1
    13     8    13      1
    14    13    14      1
    15    13    15      1
    16    13    16      1
    17    14    17      1
    18    14    18      1
    19    14    19      1
    20    19    20      1
    21    19    21      1
    22    19    22      1
    23    20    23      1
    24    20    24      1
    25    20    25      1
    26    25    26      1
    27    25    27      1
    28    25    28      1
    29    26    29      1
    30    26    30      1
    31    26    31      1
    32    31    32      1
    33    31    33      1
    34    31    34      1
    35    32    35      1
    36    32    36      1
    37    32    37      1
    38    37    38      1
    39    37    39      1
    40    37    40      1
    41    38    41      1
    42    38    42      1
    43    38    43      1
    44    43    44      1
    45    43    45      1
    46    43    46      1
    47    44    47      1
    48    44    48      1
    49    44    49      1
    50    49    50      1
    51    49    51      1
    52    49    52      1
    53    50    53      1
    54    50    54      1
    55    50    55      1
    56    55    56      1
    57    55    57      1
    58    55    58      1
    59    56    59      1
    60    56    60      1
    61    56    61      1
    62    61    62      1
    63    61    63      1
    64    61    64      1
    65    62    65      1
    66    62    66      1
    67    62    67      1
    68    67    68      1
    69    67    69      1
    70    67    70      1
    71    68    71      1
    72    68    72      1
    73    68    73      1
    74    73    74      1
    75    73    75      1
    76    73    76      1
    77    74    77      1
    78    74    78      1
    79    74    79      1
    80    79    80      1
    81    79    81      1
    82    79    82      1
    83    80    83      1
    84    80    84      1
    85    80    85      1
    86    85    86      1
    87    85    87      1
    88    85    88      1
    89    86    89      1
    90    86    90      1
    91    86    91      1
    92    91    92      1
    93    91    93      1
    94    91    94      1
    95    92    95      1
    96    92    96      1
    97    92    97      1
    98    97    98      1
    99    97    99      1
   100    97   100      1
   101    98   101      1
   102    98   102      1
   103    98   103      1
   104   103   104      1
   105   103   105      1
   106   103   106      1
   107   104   107      1
   108   104   108      1
   109   104   109      1
   110   109   110      1
   111   109   111      1
   112   109   112      1
   113   110   113      1
   114   110   114      1
   115   110   115      1
   116   115   116      1
   117   115   117      1
   118   115   118      1
   119   116   119      1
   120   116   120      1
   121   116   121      1
   122   121   122      1
   123   121   123      1
   124   121   124      1
   125   122   125      1
   126   122   126      1
   127   122   127      1
   128   127   128      1
   129   127   129      1
   130   127   130      1
   131   128   131      1
   132   128   132      1
   133   128   133      1
   134   133   134      1
   135   133   135      1
   136   133   136      1
   137   134   137      1
   138   134   138      1
   139   134   139      1
   140   139   140      1
   141   139   141      1
   142   139   142      1
   143   140   143      1
   144   140   144      1
   145   140   145      1
   146   145   146      1
   147   145   147      1
   148   145   148      1
   149   146   149      1
   150   146   150      1
   151   146   151      1
   152   151   152      1
   153   151   153      1
   154   151   154      1
   155   152   155      1
   156   152   156      1
   157   152   157      1
   158   157   158      1
   159   157   159      1
   160   157   160      1
   161   158   161      1
   162   158   162      1
   163   158   163      1
   164   163   164      1
   165   163   165      1
   166   163   166      1
   167   164   167      1
   168   164   168      1
   169   164   169      H
