###
### Created by PolyChef-cpp17 on Thu Feb 27 19:40:30 2025
###

@<TRIPOS>MOLECULE
NO_INFO
152 151 1 0 0
SMALL
USER_CHARGES


@<TRIPOS>ATOM
      1 C          29.2798   87.8287  -39.3449 C.3       0        0    0.0000
      2 C          27.8706   87.6682  -38.7641 C.3       0        0    0.0000
      3 H          29.9271   87.0166  -38.9913 H         0        0    0.0000
      4 H          29.7280   88.7655  -38.9913 H         0        0    0.0000
      5 H          27.3719   88.6440  -38.7118 H         0        0    0.0000
      6 H          27.2613   87.0380  -39.4238 H         0        0    0.0000
      7 C          27.8874   87.0320  -37.3315 C.3       1        0    0.0000
      8 C          29.1655   87.3752  -36.5584 C.3       1        0    0.0000
      9 H          27.0075   87.3831  -36.7783 H         1        0    0.0000
     10 H          27.7861   85.9437  -37.4266 H         1        0    0.0000
     11 H          30.0456   87.1982  -37.1891 H         1        0    0.0000
     12 H          29.1733   88.4411  -36.2988 H         1        0    0.0000
     13 C          29.3086   86.5338  -35.2436 C.3       2        0    0.0000
     14 C          30.2070   87.2208  -34.2092 C.3       2        0    0.0000
     15 H          28.3102   86.3647  -34.8215 H         2        0    0.0000
     16 H          29.7144   85.5467  -35.4978 H         2        0    0.0000
     17 H          31.2614   87.0994  -34.4869 H         2        0    0.0000
     18 H          30.0072   88.2994  -34.1947 H         2        0    0.0000
     19 C          29.9958   86.6483  -32.7652 C.3       3        0    0.0000
     20 C          30.6196   87.5432  -31.6886 C.3       3        0    0.0000
     21 H          28.9198   86.5355  -32.5835 H         3        0    0.0000
     22 H          30.4307   85.6423  -32.7165 H         3        0    0.0000
     23 H          31.7087   87.5806  -31.8151 H         3        0    0.0000
     24 H          30.2544   88.5721  -31.7967 H         3        0    0.0000
     25 C          30.2962   87.0421  -30.2388 C.3       4        0    0.0000
     26 C          30.8985   87.9514  -29.1621 C.3       4        0    0.0000
     27 H          29.2072   86.9868  -30.1185 H         4        0    0.0000
     28 H          30.6781   86.0200  -30.1247 H         4        0    0.0000
     29 H          31.9882   88.0012  -29.2782 H         4        0    0.0000
     30 H          30.5220   88.9750  -29.2805 H         4        0    0.0000
     31 C          30.5669   87.4557  -27.7123 C.3       5        0    0.0000
     32 C          31.1743   88.3615  -26.6355 C.3       5        0    0.0000
     33 H          29.4771   87.4102  -27.5948 H         5        0    0.0000
     34 H          30.9393   86.4304  -27.5954 H         5        0    0.0000
     35 H          32.2640   88.4075  -26.7535 H         5        0    0.0000
     36 H          30.8013   89.3866  -26.7521 H         5        0    0.0000
     37 C          30.8435   87.8653  -25.1858 C.3       6        0    0.0000
     38 C          31.4565   88.7674  -24.1090 C.3       6        0    0.0000
     39 H          29.7537   87.8240  -25.0662 H         6        0    0.0000
     40 H          31.2121   86.8384  -25.0708 H         6        0    0.0000
     41 H          32.5459   88.8109  -24.2303 H         6        0    0.0000
     42 H          31.0856   89.7936  -24.2223 H         6        0    0.0000
     43 C          31.1289   88.2689  -22.6593 C.3       7        0    0.0000
     44 C          31.0308   89.4237  -21.6563 C.3       7        0    0.0000
     45 H          30.1855   87.7095  -22.6824 H         7        0    0.0000
     46 H          31.9066   87.5621  -22.3443 H         7        0    0.0000
     47 H          32.0087   89.9079  -21.5433 H         7        0    0.0000
     48 H          30.3412   90.1901  -22.0314 H         7        0    0.0000
     49 C          30.5374   88.9462  -20.2470 C.3       8        0    0.0000
     50 C          31.4824   89.3830  -19.1222 C.3       8        0    0.0000
     51 H          29.5316   89.3468  -20.0701 H         8        0    0.0000
     52 H          30.4440   87.8532  -20.2567 H         8        0    0.0000
     53 H          32.5225   89.3464  -19.4692 H         8        0    0.0000
     54 H          31.2796   90.4246  -18.8437 H         8        0    0.0000
     55 C          31.3434   88.4827  -17.8464 C.3       9        0    0.0000
     56 C          31.0580   89.3040  -16.5842 C.3       9        0    0.0000
     57 H          30.5384   87.7560  -18.0124 H         9        0    0.0000
     58 H          32.2675   87.9054  -17.7186 H         9        0    0.0000
     59 H          31.9706   89.8152  -16.2537 H         9        0    0.0000
     60 H          30.3205   90.0861  -16.8031 H         9        0    0.0000
     61 C          30.5208   88.4180  -15.4078 C.3      10        0    0.0000
     62 C          30.9527   88.9493  -14.0365 C.3      10        0    0.0000
     63 H          29.4261   88.3768  -15.4675 H        10        0    0.0000
     64 H          30.8827   87.3914  -15.5445 H        10        0    0.0000
     65 H          32.0344   89.1316  -14.0274 H        10        0    0.0000
     66 H          30.4690   89.9136  -13.8373 H        10        0    0.0000
     67 C          30.5978   87.9567  -12.8762 C.3      11        0    0.0000
     68 C          30.8310   88.5734  -11.4926 C.3      11        0    0.0000
     69 H          29.5491   87.6517  -12.9801 H        11        0    0.0000
     70 H          31.2028   87.0487  -12.9901 H        11        0    0.0000
     71 H          31.8884   88.8403  -11.3731 H        11        0    0.0000
     72 H          30.2582   89.5038  -11.3940 H        11        0    0.0000
     73 C          30.4208   87.6022  -10.3324 C.3      12        0    0.0000
     74 C          30.6694   88.2126   -8.9487 C.3      12        0    0.0000
     75 H          29.3603   87.3448  -10.4451 H        12        0    0.0000
     76 H          30.9848   86.6672  -10.4380 H        12        0    0.0000
     77 H          31.7291   88.4736   -8.8376 H        12        0    0.0000
     78 H          30.1022   89.1455   -8.8417 H        12        0    0.0000
     79 C          30.2645   87.2392   -7.7886 C.3      13        0    0.0000
     80 C          30.5161   87.8483   -6.4048 C.3      13        0    0.0000
     81 H          29.2041   86.9800   -7.8983 H        13        0    0.0000
     82 H          30.8299   86.3053   -7.8969 H        13        0    0.0000
     83 H          31.5758   88.1107   -6.2964 H        13        0    0.0000
     84 H          29.9479   88.7803   -6.2951 H        13        0    0.0000
     85 C          30.1157   86.8730   -5.2447 C.3      14        0    0.0000
     86 C          30.3635   87.4837   -3.8609 C.3      14        0    0.0000
     87 H          29.0568   86.6082   -5.3549 H        14        0    0.0000
     88 H          30.6861   85.9421   -5.3526 H        14        0    0.0000
     89 H          31.4236   87.7426   -3.7484 H        14        0    0.0000
     90 H          29.7981   88.4179   -3.7553 H        14        0    0.0000
     91 C          29.9548   86.5118   -2.7008 C.3      15        0    0.0000
     92 C          30.2256   87.1128   -1.3171 C.3      15        0    0.0000
     93 H          28.8902   86.2672   -2.8029 H        15        0    0.0000
     94 H          30.5068   85.5708   -2.8168 H        15        0    0.0000
     95 H          31.2952   87.3287   -1.2035 H        15        0    0.0000
     96 H          29.6983   88.0691   -1.2126 H        15        0    0.0000
     97 C          29.7767   86.1589   -0.1569 C.3      16        0    0.0000
     98 C          30.4028   86.5451    1.1877 C.3      16        0    0.0000
     99 H          28.6824   86.1827   -0.0830 H        16        0    0.0000
    100 H          30.0524   85.1298   -0.4185 H        16        0    0.0000
    101 H          30.0768   87.5512    1.4793 H        16        0    0.0000
    102 H          30.0574   85.8619    1.9735 H        16        0    0.0000
    103 C          31.9695   86.5143    1.1441 C.3      17        0    0.0000
    104 C          32.5968   87.0193    2.4482 C.3      17        0    0.0000
    105 H          32.2976   85.4872    0.9419 H        17        0    0.0000
    106 H          32.3119   87.1263    0.3004 H        17        0    0.0000
    107 H          31.8664   86.9601    3.2646 H        17        0    0.0000
    108 H          33.4401   86.3780    2.7330 H        17        0    0.0000
    109 C          33.1039   88.4979    2.3300 C.3      18        0    0.0000
    110 C          33.8487   88.9588    3.5877 C.3      18        0    0.0000
    111 H          33.7594   88.5780    1.4541 H        18        0    0.0000
    112 H          32.2441   89.1525    2.1409 H        18        0    0.0000
    113 H          34.9124   89.1047    3.3627 H        18        0    0.0000
    114 H          33.4609   89.9298    3.9200 H        18        0    0.0000
    115 C          33.7175   87.9326    4.7655 C.3      19        0    0.0000
    116 C          34.6062   88.3010    5.9586 C.3      19        0    0.0000
    117 H          32.6672   87.8864    5.0789 H        19        0    0.0000
    118 H          33.9799   86.9339    4.3951 H        19        0    0.0000
    119 H          34.2584   89.2376    6.4117 H        19        0    0.0000
    120 H          34.5328   87.5292    6.7348 H        19        0    0.0000
    121 C          36.1108   88.4654    5.5503 C.3      20        0    0.0000
    122 C          36.9752   88.9729    6.7098 C.3      20        0    0.0000
    123 H          36.4884   87.4987    5.1946 H        20        0    0.0000
    124 H          36.1734   89.1592    4.7028 H        20        0    0.0000
    125 H          37.8755   88.3536    6.8068 H        20        0    0.0000
    126 H          37.3165   89.9952    6.5051 H        20        0    0.0000
    127 C          36.2044   88.9612    8.0748 C.3      21        0    0.0000
    128 C          37.0563   89.5039    9.2275 C.3      21        0    0.0000
    129 H          35.2899   89.5580    7.9696 H        21        0    0.0000
    130 H          35.8869   87.9340    8.2928 H        21        0    0.0000
    131 H          36.5833   90.3955    9.6574 H        21        0    0.0000
    132 H          37.1176   88.7608   10.0322 H        21        0    0.0000
    133 C          38.5092   89.8737    8.7696 C.3      22        0    0.0000
    134 C          39.3751   90.3728    9.9315 C.3      22        0    0.0000
    135 H          38.9702   88.9912    8.3090 H        22        0    0.0000
    136 H          38.4491   90.6416    7.9884 H        22        0    0.0000
    137 H          40.4144   90.4932    9.6015 H        22        0    0.0000
    138 H          39.0319   91.3622   10.2585 H        22        0    0.0000
    139 C          39.3441   89.3965   11.1576 C.3      23        0    0.0000
    140 C          39.9847   90.0121   12.4066 C.3      23        0    0.0000
    141 H          38.3023   89.1227   11.3653 H        23        0    0.0000
    142 H          39.8651   88.4703   10.8853 H        23        0    0.0000
    143 H          39.2069   90.3068   13.1218 H        23        0    0.0000
    144 H          40.6126   89.2683   12.9127 H        23        0    0.0000
    145 C          40.8613   91.2668   12.0677 C.3      24        0    0.0000
    146 C          41.4326   91.9327   13.3243 C.3      24        0    0.0000
    147 H          41.6766   90.9590   11.4013 H        24        0    0.0000
    148 H          40.2497   91.9843   11.5067 H        24        0    0.0000
    149 H          40.6173   92.2405   13.9907 H        24        0    0.0000
    150 H          42.0442   91.2152   13.8853 H        24        0    0.0000
    151 H          42.0421   92.8052   13.0887 H        24        0    0.0000
    152 H          29.2798   87.8287  -40.4349 H         0        0    0.0000
@<TRIPOS>BOND
     1     1     2      1
     2     1     3      1
     3     1     4      1
     4     1   152      H
     5     2     5      1
     6     2     6      1
     7     2     7      1
     8     7     8      1
     9     7     9      1
    10     7    10      1
    11     8    11      1
    12     8    12      1
    13     8    13      1
    14    13    14      1
    15    13    15      1
    16    13    16      1
    17    14    17      1
    18    14    18      1
    19    14    19      1
    20    19    20      1
    21    19    21      1
    22    19    22      1
    23    20    23      1
    24    20    24      1
    25    20    25      1
    26    25    26      1
    27    25    27      1
    28    25    28      1
    29    26    29      1
    30    26    30      1
    31    26    31      1
    32    31    32      1
    33    31    33      1
    34    31    34      1
    35    32    35      1
    36    32    36      1
    37    32    37      1
    38    37    38      1
    39    37    39      1
    40    37    40      1
    41    38    41      1
    42    38    42      1
    43    38    43      1
    44    43    44      1
    45    43    45      1
    46    43    46      1
    47    44    47      1
    48    44    48      1
    49    44    49      1
    50    49    50      1
    51    49    51      1
    52    49    52      1
    53    50    53      1
    54    50    54      1
    55    50    55      1
    56    55    56      1
    57    55    57      1
    58    55    58      1
    59    56    59      1
    60    56    60      1
    61    56    61      1
    62    61    62      1
    63    61    63      1
    64    61    64      1
    65    62    65      1
    66    62    66      1
    67    62    67      1
    68    67    68      1
    69    67    69      1
    70    67    70      1
    71    68    71      1
    72    68    72      1
    73    68    73      1
    74    73    74      1
    75    73    75      1
    76    73    76      1
    77    74    77      1
    78    74    78      1
    79    74    79      1
    80    79    80      1
    81    79    81      1
    82    79    82      1
    83    80    83      1
    84    80    84      1
    85    80    85      1
    86    85    86      1
    87    85    87      1
    88    85    88      1
    89    86    89      1
    90    86    90      1
    91    86    91      1
    92    91    92      1
    93    91    93      1
    94    91    94      1
    95    92    95      1
    96    92    96      1
    97    92    97      1
    98    97    98      1
    99    97    99      1
   100    97   100      1
   101    98   101      1
   102    98   102      1
   103    98   103      1
   104   103   104      1
   105   103   105      1
   106   103   106      1
   107   104   107      1
   108   104   108      1
   109   104   109      1
   110   109   110      1
   111   109   111      1
   112   109   112      1
   113   110   113      1
   114   110   114      1
   115   110   115      1
   116   115   116      1
   117   115   117      1
   118   115   118      1
   119   116   119      1
   120   116   120      1
   121   116   121      1
   122   121   122      1
   123   121   123      1
   124   121   124      1
   125   122   125      1
   126   122   126      1
   127   122   127      1
   128   127   128      1
   129   127   129      1
   130   127   130      1
   131   128   131      1
   132   128   132      1
   133   128   133      1
   134   133   134      1
   135   133   135      1
   136   133   136      1
   137   134   137      1
   138   134   138      1
   139   134   139      1
   140   139   140      1
   141   139   141      1
   142   139   142      1
   143   140   143      1
   144   140   144      1
   145   140   145      1
   146   145   146      1
   147   145   147      1
   148   145   148      1
   149   146   149      1
   150   146   150      1
   151   146   151      H
