###
### Created by PolyChef-cpp17 on Thu Feb 27 19:40:28 2025
###

@<TRIPOS>MOLECULE
NO_INFO
296 295 1 0 0
SMALL
USER_CHARGES


@<TRIPOS>ATOM
      1 C         159.2798  139.7887  120.6551 C.3       0        0    0.0000
      2 C         158.4513  138.6375  120.0742 C.3       0        0    0.0000
      3 H         158.8875  140.7502  120.3015 H         0        0    0.0000
      4 H         160.3162  139.7220  120.3014 H         0        0    0.0000
      5 H         158.4068  137.8074  120.7901 H         0        0    0.0000
      6 H         157.4177  138.9649  119.9070 H         0        0    0.0000
      7 C         159.0384  138.1067  118.7210 C.3       1        0    0.0000
      8 C         159.6372  139.2300  117.8673 C.3       1        0    0.0000
      9 H         159.8037  137.3517  118.9396 H         1        0    0.0000
     10 H         158.2417  137.5963  118.1659 H         1        0    0.0000
     11 H         158.9472  140.0820  117.8291 H         1        0    0.0000
     12 H         160.5648  139.5962  118.3244 H         1        0    0.0000
     13 C         159.9454  138.7634  116.4029 C.3       2        0    0.0000
     14 C         159.8881  139.9210  115.4001 C.3       2        0    0.0000
     15 H         160.9379  138.2964  116.3820 H         2        0    0.0000
     16 H         159.2252  137.9853  116.1207 H         2        0    0.0000
     17 H         158.9683  140.5008  115.5471 H         2        0    0.0000
     18 H         160.7250  140.6092  115.5718 H         2        0    0.0000
     19 C         159.9397  139.4234  113.9145 C.3       3        0    0.0000
     20 C         159.8254  140.5765  112.9113 C.3       3        0    0.0000
     21 H         160.8789  138.8789  113.7564 H         3        0    0.0000
     22 H         159.1275  138.7035  113.7543 H         3        0    0.0000
     23 H         158.8912  141.1274  113.0764 H         3        0    0.0000
     24 H         160.6438  141.2909  113.0646 H         3        0    0.0000
     25 C         159.8620  140.0773  111.4257 C.3       4        0    0.0000
     26 C         159.8842  141.2369  110.4238 C.3       4        0    0.0000
     27 H         160.7467  139.4436  111.2873 H         4        0    0.0000
     28 H         158.9870  139.4407  111.2449 H         4        0    0.0000
     29 H         158.9896  141.8594  110.5489 H         4        0    0.0000
     30 H         160.7483  141.8847  110.6172 H         4        0    0.0000
     31 C         159.9490  140.7380  108.9390 C.3       5        0    0.0000
     32 C         158.8980  141.4150  108.0524 C.3       5        0    0.0000
     33 H         160.9545  140.9309  108.5448 H         5        0    0.0000
     34 H         159.8086  139.6501  108.9251 H         5        0    0.0000
     35 H         157.9391  141.4716  108.5822 H         5        0    0.0000
     36 H         159.1987  142.4472  107.8339 H         5        0    0.0000
     37 C         158.6833  140.6539  106.6988 C.3       6        0    0.0000
     38 C         159.0435  141.5163  105.4841 C.3       6        0    0.0000
     39 H         159.2920  139.7412  106.7060 H         6        0    0.0000
     40 H         157.6360  140.3336  106.6355 H         6        0    0.0000
     41 H         158.1669  142.0884  105.1558 H         6        0    0.0000
     42 H         159.8132  142.2485  105.7576 H         6        0    0.0000
     43 C         159.5668  140.6586  104.2808 C.3       7        0    0.0000
     44 C         158.9964  141.1313  102.9391 C.3       7        0    0.0000
     45 H         160.6626  140.7075  104.2618 H         7        0    0.0000
     46 H         159.3012  139.6082  104.4533 H         7        0    0.0000
     47 H         157.9108  141.2683  103.0191 H         7        0    0.0000
     48 H         159.4185  142.1086  102.6742 H         7        0    0.0000
     49 C         159.2939  140.1210  101.7779 C.3       8        0    0.0000
     50 C         159.1163  140.7570  100.3948 C.3       8        0    0.0000
     51 H         160.3183  139.7449  101.8903 H         8        0    0.0000
     52 H         158.6275  139.2559  101.8825 H         8        0    0.0000
     53 H         158.0721  141.0618  100.2522 H         8        0    0.0000
     54 H         159.7234  141.6676  100.3187 H         8        0    0.0000
     55 C         159.5207  139.7817   99.2361 C.3       9        0    0.0000
     56 C         159.2832  140.3946   97.8515 C.3       9        0    0.0000
     57 H         160.5782  139.5137   99.3524 H         9        0    0.0000
     58 H         158.9469  138.8524   99.3395 H         9        0    0.0000
     59 H         158.2286  140.6757   97.7404 H         9        0    0.0000
     60 H         159.8681  141.3164   97.7428 H         9        0    0.0000
     61 C         159.6689  139.4119   96.6927 C.3      10        0    0.0000
     62 C         159.4261  140.0227   95.3081 C.3      10        0    0.0000
     63 H         160.7247  139.1341   96.8014 H        10        0    0.0000
     64 H         159.0872  138.4885   96.8037 H        10        0    0.0000
     65 H         158.3706  140.3016   95.1999 H        10        0    0.0000
     66 H         160.0088  140.9454   95.1966 H        10        0    0.0000
     67 C         159.8102  139.0393   94.1493 C.3      11        0    0.0000
     68 C         159.5698  139.6510   92.7647 C.3      11        0    0.0000
     69 H         160.8652  138.7588   94.2586 H        11        0    0.0000
     70 H         159.2261  138.1173   94.2597 H        11        0    0.0000
     71 H         158.5139  139.9270   92.6535 H        11        0    0.0000
     72 H         160.1502  140.5757   92.6561 H        11        0    0.0000
     73 C         159.9604  138.6702   91.6059 C.3      12        0    0.0000
     74 C         159.7147  139.2799   90.2213 C.3      12        0    0.0000
     75 H         161.0175  138.3976   91.7147 H        12        0    0.0000
     76 H         159.3832  137.7440   91.7169 H        12        0    0.0000
     77 H         158.6579  139.5538   90.1131 H        12        0    0.0000
     78 H         160.2930  140.2054   90.1098 H        12        0    0.0000
     79 C         160.1035  138.2983   89.0625 C.3      13        0    0.0000
     80 C         159.8599  138.9088   87.6779 C.3      13        0    0.0000
     81 H         161.1599  138.0232   89.1717 H        13        0    0.0000
     82 H         159.5240  137.3734   89.1731 H        13        0    0.0000
     83 H         158.8040  139.1860   87.5696 H        13        0    0.0000
     84 H         160.4411  139.8326   87.5665 H        13        0    0.0000
     85 C         160.2458  137.9261   86.5191 C.3      14        0    0.0000
     86 C         160.0050  138.5377   85.1346 C.3      14        0    0.0000
     87 H         161.3012  137.6472   86.6288 H        14        0    0.0000
     88 H         159.6630  137.0033   86.6293 H        14        0    0.0000
     89 H         158.9549  138.8389   85.0339 H        14        0    0.0000
     90 H         160.6065  139.4474   85.0153 H        14        0    0.0000
     91 C         160.3586  137.5427   83.9759 C.3      15        0    0.0000
     92 C         160.1143  138.1530   82.5914 C.3      15        0    0.0000
     93 H         161.4094  137.2435   84.0751 H        15        0    0.0000
     94 H         159.7590  136.6319   84.0967 H        15        0    0.0000
     95 H         159.0410  138.3203   82.4381 H        15        0    0.0000
     96 H         160.5993  139.1346   82.5221 H        15        0    0.0000
     97 C         160.6534  137.2404   81.4364 C.3      16        0    0.0000
     98 C         160.3832  137.8369   80.0506 C.3      16        0    0.0000
     99 H         161.7309  137.0904   81.5778 H        16        0    0.0000
    100 H         160.1843  136.2521   81.5184 H        16        0    0.0000
    101 H         159.3103  138.0288   79.9263 H        16        0    0.0000
    102 H         160.8899  138.8050   79.9526 H        16        0    0.0000
    103 C         160.8653  136.8949   78.8941 C.3      17        0    0.0000
    104 C         160.6006  137.4940   77.5084 C.3      17        0    0.0000
    105 H         161.9374  136.6995   79.0208 H        17        0    0.0000
    106 H         160.3555  135.9283   78.9896 H        17        0    0.0000
    107 H         159.5272  137.6789   77.3774 H        17        0    0.0000
    108 H         161.1011  138.4660   77.4170 H        17        0    0.0000
    109 C         161.0971  136.5592   76.3522 C.3      18        0    0.0000
    110 C         160.8440  137.1641   74.9669 C.3      18        0    0.0000
    111 H         162.1685  136.3667   76.4885 H        18        0    0.0000
    112 H         160.5896  135.5904   76.4381 H        18        0    0.0000
    113 H         159.7715  137.3481   74.8271 H        18        0    0.0000
    114 H         161.3440  138.1370   74.8841 H        18        0    0.0000
    115 C         161.3521  136.2349   73.8110 C.3      19        0    0.0000
    116 C         161.1440  136.8617   72.4279 C.3      19        0    0.0000
    117 H         162.4162  136.0213   73.9710 H        19        0    0.0000
    118 H         160.8253  135.2745   73.8719 H        19        0    0.0000
    119 H         160.0785  137.0647   72.2633 H        19        0    0.0000
    120 H         161.6611  137.8275   72.3710 H        19        0    0.0000
    121 C         161.6670  135.9396   71.2731 C.3      20        0    0.0000
    122 C         162.5428  136.7019   70.2726 C.3      20        0    0.0000
    123 H         162.2336  135.1093   71.7126 H        20        0    0.0000
    124 H         160.8063  135.4958   70.7577 H        20        0    0.0000
    125 H         161.9224  137.1136   69.4669 H        20        0    0.0000
    126 H         163.0236  137.5550   70.7672 H        20        0    0.0000
    127 C         163.6528  135.7926   69.6413 C.3      21        0    0.0000
    128 C         163.1908  135.1325   68.3374 C.3      21        0    0.0000
    129 H         164.5469  136.4014   69.4585 H        21        0    0.0000
    130 H         163.9382  135.0248   70.3710 H        21        0    0.0000
    131 H         162.3428  135.6861   67.9155 H        21        0    0.0000
    132 H         163.9942  135.1704   67.5914 H        21        0    0.0000
    133 C         162.7653  133.6383   68.5463 C.3      22        0    0.0000
    134 C         163.5595  132.6780   67.6541 C.3      22        0    0.0000
    135 H         162.9064  133.3747   69.6018 H        22        0    0.0000
    136 H         161.6922  133.5439   68.3388 H        22        0    0.0000
    137 H         162.9857  132.4442   66.7487 H        22        0    0.0000
    138 H         164.4901  133.1552   67.3228 H        22        0    0.0000
    139 C         163.9121  131.3388   68.3888 C.3      23        0    0.0000
    140 C         165.3364  130.8644   68.0799 C.3      23        0    0.0000
    141 H         163.7905  131.4856   69.4691 H        23        0    0.0000
    142 H         163.1871  130.5710   68.0916 H        23        0    0.0000
    143 H         165.3828  130.4487   67.0657 H        23        0    0.0000
    144 H         166.0295  131.7144   68.1039 H        23        0    0.0000
    145 C         165.8339  129.7780   69.0945 C.3      24        0    0.0000
    146 C         166.7325  128.7298   68.4290 C.3      24        0    0.0000
    147 H         166.3757  130.2758   69.9083 H        24        0    0.0000
    148 H         164.9613  129.2919   69.5482 H        24        0    0.0000
    149 H         166.2656  128.3660   67.5053 H        24        0    0.0000
    150 H         167.6893  129.1828   68.1412 H        24        0    0.0000
    151 C         167.0148  127.5068   69.3682 C.3      25        0    0.0000
    152 C         168.3683  126.8499   69.0756 C.3      25        0    0.0000
    153 H         166.9788  127.8459   70.4109 H        25        0    0.0000
    154 H         166.2071  126.7742   69.2471 H        25        0    0.0000
    155 H         168.3496  126.3740   68.0874 H        25        0    0.0000
    156 H         169.1570  127.6118   69.0434 H        25        0    0.0000
    157 C         168.7500  125.7724   70.1483 C.3      26        0    0.0000
    158 C         170.2152  125.8809   70.5847 C.3      26        0    0.0000
    159 H         168.0893  125.8882   71.0165 H        26        0    0.0000
    160 H         168.5538  124.7758   69.7338 H        26        0    0.0000
    161 H         170.8658  125.4073   69.8392 H        26        0    0.0000
    162 H         170.5143  126.9350   70.6397 H        26        0    0.0000
    163 C         170.4713  125.2098   71.9781 C.3      27        0    0.0000
    164 C         171.3317  123.9464   71.8649 C.3      27        0    0.0000
    165 H         170.9584  125.9388   72.6375 H        27        0    0.0000
    166 H         169.5048  124.9668   72.4366 H        27        0    0.0000
    167 H         171.2950  123.5569   70.8399 H        27        0    0.0000
    168 H         172.3816  124.1864   72.0733 H        27        0    0.0000
    169 C         170.8656  122.8199   72.8504 C.3      28        0    0.0000
    170 C         171.7208  122.7696   74.1213 C.3      28        0    0.0000
    171 H         169.8138  122.9912   73.1112 H        28        0    0.0000
    172 H         170.9080  121.8551   72.3301 H        28        0    0.0000
    173 H         172.4980  122.0019   74.0216 H        28        0    0.0000
    174 H         172.2391  123.7259   74.2640 H        28        0    0.0000
    175 C         170.8675  122.4617   75.3998 C.3      29        0    0.0000
    176 C         171.7222  122.4141   76.6710 C.3      29        0    0.0000
    177 H         170.0890  123.2284   75.4984 H        29        0    0.0000
    178 H         170.3507  121.5044   75.2579 H        29        0    0.0000
    179 H         172.5461  121.7009   76.5439 H        29        0    0.0000
    180 H         172.1797  123.3944   76.8537 H        29        0    0.0000
    181 C         170.8879  122.0027   77.9329 C.3      30        0    0.0000
    182 C         171.7662  121.8198   79.1755 C.3      30        0    0.0000
    183 H         170.1273  122.7709   78.1196 H        30        0    0.0000
    184 H         170.3492  121.0728   77.7128 H        30        0    0.0000
    185 H         172.5279  121.0528   78.9882 H        30        0    0.0000
    186 H         172.3037  122.7502   79.3966 H        30        0    0.0000
    187 C         170.9322  121.4062   80.4368 C.3      31        0    0.0000
    188 C         171.7332  121.5500   81.7356 C.3      31        0    0.0000
    189 H         170.0282  122.0260   80.4818 H        31        0    0.0000
    190 H         170.5972  120.3687   80.3145 H        31        0    0.0000
    191 H         172.5698  120.8404   81.7421 H        31        0    0.0000
    192 H         172.1712  122.5539   81.7981 H        31        0    0.0000
    193 C         170.8513  121.3033   83.0079 C.3      32        0    0.0000
    194 C         171.5917  121.6509   84.3041 C.3      32        0    0.0000
    195 H         169.9360  121.9024   82.9253 H        32        0    0.0000
    196 H         170.5393  120.2517   83.0234 H        32        0    0.0000
    197 H         172.4937  121.0337   84.3992 H        32        0    0.0000
    198 H         171.9261  122.6954   84.2779 H        32        0    0.0000
    199 C         170.6978  121.4383   85.5742 C.3      33        0    0.0000
    200 C         171.4743  121.6659   86.8758 C.3      33        0    0.0000
    201 H         169.8416  122.1222   85.5225 H        33        0    0.0000
    202 H         170.2894  120.4203   85.5528 H        33        0    0.0000
    203 H         172.3467  121.0018   86.9144 H        33        0    0.0000
    204 H         171.8584  122.6929   86.9100 H        33        0    0.0000
    205 C         170.5912  121.4141   88.1463 C.3      34        0    0.0000
    206 C         171.3695  121.6356   89.4479 C.3      34        0    0.0000
    207 H         169.7211  122.0814   88.1100 H        34        0    0.0000
    208 H         170.2034  120.3885   88.1098 H        34        0    0.0000
    209 H         172.2412  120.9705   89.4828 H        34        0    0.0000
    210 H         171.7548  122.6621   89.4857 H        34        0    0.0000
    211 C         170.4875  121.3798   90.7184 C.3      35        0    0.0000
    212 C         171.2647  121.6052   92.0200 C.3      35        0    0.0000
    213 H         169.6143  122.0429   90.6820 H        35        0    0.0000
    214 H         170.1046  120.3524   90.6820 H        35        0    0.0000
    215 H         172.1361  120.9398   92.0578 H        35        0    0.0000
    216 H         171.6504  122.6316   92.0549 H        35        0    0.0000
    217 C         170.3815  121.3538   93.2905 C.3      36        0    0.0000
    218 C         171.1611  121.5705   94.5921 C.3      36        0    0.0000
    219 H         169.5135  122.0239   93.2559 H        36        0    0.0000
    220 H         169.9904  120.3296   93.2523 H        36        0    0.0000
    221 H         172.0296  120.9011   94.6262 H        36        0    0.0000
    222 H         171.5513  122.5951   94.6308 H        36        0    0.0000
    223 C         170.2782  121.3177   95.8626 C.3      37        0    0.0000
    224 C         171.0562  121.5404   97.1642 C.3      37        0    0.0000
    225 H         169.4074  121.9839   95.8262 H        37        0    0.0000
    226 H         169.8917  120.2917   95.8262 H        37        0    0.0000
    227 H         171.9254  120.8720   97.2020 H        37        0    0.0000
    228 H         171.4453  122.5655   97.1992 H        37        0    0.0000
    229 C         170.1721  121.2919   98.4347 C.3      38        0    0.0000
    230 C         170.9523  121.5064   99.7363 C.3      38        0    0.0000
    231 H         169.3062  121.9645   98.3999 H        38        0    0.0000
    232 H         169.7780  120.2687   98.3966 H        38        0    0.0000
    233 H         171.8172  120.8324   99.7719 H        38        0    0.0000
    234 H         171.3481  122.5290   99.7734 H        38        0    0.0000
    235 C         170.0675  121.2607  101.0068 C.3      39        0    0.0000
    236 C         170.8479  121.4748  102.3084 C.3      39        0    0.0000
    237 H         169.2029  121.9350  100.9713 H        39        0    0.0000
    238 H         169.6714  120.2383  100.9694 H        39        0    0.0000
    239 H         171.7134  120.8016  102.3431 H        39        0    0.0000
    240 H         171.2426  122.4976  102.3464 H        39        0    0.0000
    241 C         169.9637  121.2268  103.5789 C.3      40        0    0.0000
    242 C         170.7419  121.4486  104.8805 C.3      40        0    0.0000
    243 H         169.0951  121.8959  103.5412 H        40        0    0.0000
    244 H         169.5737  120.2020  103.5438 H        40        0    0.0000
    245 H         171.6097  120.7786  104.9188 H        40        0    0.0000
    246 H         171.1330  122.4730  104.9150 H        40        0    0.0000
    247 C         169.8571  121.2026  106.1510 C.3      41        0    0.0000
    248 C         170.6367  121.4193  107.4526 C.3      41        0    0.0000
    249 H         168.9913  121.8753  106.1146 H        41        0    0.0000
    250 H         169.4628  120.1795  106.1146 H        41        0    0.0000
    251 H         171.5043  120.7487  107.4876 H        41        0    0.0000
    252 H         171.0285  122.4433  107.4904 H        41        0    0.0000
    253 C         169.7531  121.1691  108.7231 C.3      42        0    0.0000
    254 C         170.5313  121.3911  110.0247 C.3      42        0    0.0000
    255 H         168.8835  121.8370  108.6861 H        42        0    0.0000
    256 H         169.3646  120.1438  108.6872 H        42        0    0.0000
    257 H         171.3996  120.7217  110.0626 H        42        0    0.0000
    258 H         170.9216  122.4157  110.0595 H        42        0    0.0000
    259 C         169.6468  121.1438  111.2952 C.3      43        0    0.0000
    260 C         170.4267  121.3595  112.5968 C.3      43        0    0.0000
    261 H         168.7809  121.8165  111.2596 H        43        0    0.0000
    262 H         169.2527  120.1207  111.2579 H        43        0    0.0000
    263 H         171.2937  120.6881  112.6315 H        43        0    0.0000
    264 H         170.8194  122.3832  112.6349 H        43        0    0.0000
    265 C         169.5430  121.1097  113.8673 C.3      44        0    0.0000
    266 C         170.3215  121.3306  115.1689 C.3      44        0    0.0000
    267 H         168.6740  121.7783  113.8306 H        44        0    0.0000
    268 H         169.1536  120.0847  113.8312 H        44        0    0.0000
    269 H         171.1925  120.6645  115.2039 H        44        0    0.0000
    270 H         170.7079  122.3566  115.2066 H        44        0    0.0000
    271 C         169.4392  121.0758  116.4394 C.3      45        0    0.0000
    272 C         170.2159  121.3027  117.7410 C.3      45        0    0.0000
    273 H         168.5658  121.7386  116.4021 H        45        0    0.0000
    274 H         169.0565  120.0483  116.4039 H        45        0    0.0000
    275 H         171.0884  120.6386  117.7791 H        45        0    0.0000
    276 H         170.6000  122.3297  117.7757 H        45        0    0.0000
    277 C         169.3330  121.0502  119.0115 C.3      46        0    0.0000
    278 C         170.1110  121.2725  120.3131 C.3      46        0    0.0000
    279 H         168.4623  121.7167  118.9752 H        46        0    0.0000
    280 H         168.9461  120.0242  118.9750 H        46        0    0.0000
    281 H         169.4255  121.2519  121.1693 H        46        0    0.0000
    282 H         170.8299  120.4578  120.4655 H        46        0    0.0000
    283 C         170.8843  122.6361  120.3175 C.3      47        0    0.0000
    284 C         171.9116  122.7176  121.4521 C.3      47        0    0.0000
    285 H         171.3831  122.7629  119.3487 H        47        0    0.0000
    286 H         170.1586  123.4538  120.4077 H        47        0    0.0000
    287 H         172.9208  122.5429  121.0590 H        47        0    0.0000
    288 H         171.9128  123.7249  121.8867 H        47        0    0.0000
    289 C         171.6250  121.6771  122.5889 C.3      48        0    0.0000
    290 C         172.6790  121.7262  123.7005 C.3      48        0    0.0000
    291 H         170.6294  121.8738  123.0056 H        48        0    0.0000
    292 H         171.5893  120.6730  122.1485 H        48        0    0.0000
    293 H         173.6746  121.5294  123.2839 H        48        0    0.0000
    294 H         172.7147  122.7303  124.1410 H        48        0    0.0000
    295 H         172.4797  121.0026  124.4910 H        48        0    0.0000
    296 H         159.2798  139.7887  121.7450 H         0        0    0.0000
@<TRIPOS>BOND
     1     1     2      1
     2     1     3      1
     3     1     4      1
     4     1   296      H
     5     2     5      1
     6     2     6      1
     7     2     7      1
     8     7     8      1
     9     7     9      1
    10     7    10      1
    11     8    11      1
    12     8    12      1
    13     8    13      1
    14    13    14      1
    15    13    15      1
    16    13    16      1
    17    14    17      1
    18    14    18      1
    19    14    19      1
    20    19    20      1
    21    19    21      1
    22    19    22      1
    23    20    23      1
    24    20    24      1
    25    20    25      1
    26    25    26      1
    27    25    27      1
    28    25    28      1
    29    26    29      1
    30    26    30      1
    31    26    31      1
    32    31    32      1
    33    31    33      1
    34    31    34      1
    35    32    35      1
    36    32    36      1
    37    32    37      1
    38    37    38      1
    39    37    39      1
    40    37    40      1
    41    38    41      1
    42    38    42      1
    43    38    43      1
    44    43    44      1
    45    43    45      1
    46    43    46      1
    47    44    47      1
    48    44    48      1
    49    44    49      1
    50    49    50      1
    51    49    51      1
    52    49    52      1
    53    50    53      1
    54    50    54      1
    55    50    55      1
    56    55    56      1
    57    55    57      1
    58    55    58      1
    59    56    59      1
    60    56    60      1
    61    56    61      1
    62    61    62      1
    63    61    63      1
    64    61    64      1
    65    62    65      1
    66    62    66      1
    67    62    67      1
    68    67    68      1
    69    67    69      1
    70    67    70      1
    71    68    71      1
    72    68    72      1
    73    68    73      1
    74    73    74      1
    75    73    75      1
    76    73    76      1
    77    74    77      1
    78    74    78      1
    79    74    79      1
    80    79    80      1
    81    79    81      1
    82    79    82      1
    83    80    83      1
    84    80    84      1
    85    80    85      1
    86    85    86      1
    87    85    87      1
    88    85    88      1
    89    86    89      1
    90    86    90      1
    91    86    91      1
    92    91    92      1
    93    91    93      1
    94    91    94      1
    95    92    95      1
    96    92    96      1
    97    92    97      1
    98    97    98      1
    99    97    99      1
   100    97   100      1
   101    98   101      1
   102    98   102      1
   103    98   103      1
   104   103   104      1
   105   103   105      1
   106   103   106      1
   107   104   107      1
   108   104   108      1
   109   104   109      1
   110   109   110      1
   111   109   111      1
   112   109   112      1
   113   110   113      1
   114   110   114      1
   115   110   115      1
   116   115   116      1
   117   115   117      1
   118   115   118      1
   119   116   119      1
   120   116   120      1
   121   116   121      1
   122   121   122      1
   123   121   123      1
   124   121   124      1
   125   122   125      1
   126   122   126      1
   127   122   127      1
   128   127   128      1
   129   127   129      1
   130   127   130      1
   131   128   131      1
   132   128   132      1
   133   128   133      1
   134   133   134      1
   135   133   135      1
   136   133   136      1
   137   134   137      1
   138   134   138      1
   139   134   139      1
   140   139   140      1
   141   139   141      1
   142   139   142      1
   143   140   143      1
   144   140   144      1
   145   140   145      1
   146   145   146      1
   147   145   147      1
   148   145   148      1
   149   146   149      1
   150   146   150      1
   151   146   151      1
   152   151   152      1
   153   151   153      1
   154   151   154      1
   155   152   155      1
   156   152   156      1
   157   152   157      1
   158   157   158      1
   159   157   159      1
   160   157   160      1
   161   158   161      1
   162   158   162      1
   163   158   163      1
   164   163   164      1
   165   163   165      1
   166   163   166      1
   167   164   167      1
   168   164   168      1
   169   164   169      1
   170   169   170      1
   171   169   171      1
   172   169   172      1
   173   170   173      1
   174   170   174      1
   175   170   175      1
   176   175   176      1
   177   175   177      1
   178   175   178      1
   179   176   179      1
   180   176   180      1
   181   176   181      1
   182   181   182      1
   183   181   183      1
   184   181   184      1
   185   182   185      1
   186   182   186      1
   187   182   187      1
   188   187   188      1
   189   187   189      1
   190   187   190      1
   191   188   191      1
   192   188   192      1
   193   188   193      1
   194   193   194      1
   195   193   195      1
   196   193   196      1
   197   194   197      1
   198   194   198      1
   199   194   199      1
   200   199   200      1
   201   199   201      1
   202   199   202      1
   203   200   203      1
   204   200   204      1
   205   200   205      1
   206   205   206      1
   207   205   207      1
   208   205   208      1
   209   206   209      1
   210   206   210      1
   211   206   211      1
   212   211   212      1
   213   211   213      1
   214   211   214      1
   215   212   215      1
   216   212   216      1
   217   212   217      1
   218   217   218      1
   219   217   219      1
   220   217   220      1
   221   218   221      1
   222   218   222      1
   223   218   223      1
   224   223   224      1
   225   223   225      1
   226   223   226      1
   227   224   227      1
   228   224   228      1
   229   224   229      1
   230   229   230      1
   231   229   231      1
   232   229   232      1
   233   230   233      1
   234   230   234      1
   235   230   235      1
   236   235   236      1
   237   235   237      1
   238   235   238      1
   239   236   239      1
   240   236   240      1
   241   236   241      1
   242   241   242      1
   243   241   243      1
   244   241   244      1
   245   242   245      1
   246   242   246      1
   247   242   247      1
   248   247   248      1
   249   247   249      1
   250   247   250      1
   251   248   251      1
   252   248   252      1
   253   248   253      1
   254   253   254      1
   255   253   255      1
   256   253   256      1
   257   254   257      1
   258   254   258      1
   259   254   259      1
   260   259   260      1
   261   259   261      1
   262   259   262      1
   263   260   263      1
   264   260   264      1
   265   260   265      1
   266   265   266      1
   267   265   267      1
   268   265   268      1
   269   266   269      1
   270   266   270      1
   271   266   271      1
   272   271   272      1
   273   271   273      1
   274   271   274      1
   275   272   275      1
   276   272   276      1
   277   272   277      1
   278   277   278      1
   279   277   279      1
   280   277   280      1
   281   278   281      1
   282   278   282      1
   283   278   283      1
   284   283   284      1
   285   283   285      1
   286   283   286      1
   287   284   287      1
   288   284   288      1
   289   284   289      1
   290   289   290      1
   291   289   291      1
   292   289   292      1
   293   290   293      1
   294   290   294      1
   295   290   295      H
