###
### Created by PolyChef-cpp17 on Thu Feb 27 19:40:28 2025
###

@<TRIPOS>MOLECULE
NO_INFO
332 331 1 0 0
SMALL
USER_CHARGES


@<TRIPOS>ATOM
      1 C         109.2798  157.1087  -39.3449 C.3       0        0    0.0000
      2 C         107.8706  156.9482  -38.7641 C.3       0        0    0.0000
      3 H         109.9271  156.2966  -38.9913 H         0        0    0.0000
      4 H         109.7280  158.0455  -38.9913 H         0        0    0.0000
      5 H         107.3723  157.9241  -38.7107 H         0        0    0.0000
      6 H         107.2609  156.3190  -39.4244 H         0        0    0.0000
      7 C         107.8873  156.3103  -37.3322 C.3       1        0    0.0000
      8 C         109.1650  156.6534  -36.5584 C.3       1        0    0.0000
      9 H         107.0070  156.6603  -36.7789 H         1        0    0.0000
     10 H         107.7866  155.2222  -37.4286 H         1        0    0.0000
     11 H         110.0453  156.4785  -37.1893 H         1        0    0.0000
     12 H         109.1716  157.7188  -36.2966 H         1        0    0.0000
     13 C         109.3088  155.8096  -35.2451 C.3       2        0    0.0000
     14 C         110.2024  156.4978  -34.2074 C.3       2        0    0.0000
     15 H         108.3103  155.6356  -34.8254 H         2        0    0.0000
     16 H         109.7191  154.8248  -35.5007 H         2        0    0.0000
     17 H         111.2578  156.3815  -34.4834 H         2        0    0.0000
     18 H         109.9981  157.5756  -34.1906 H         2        0    0.0000
     19 C         109.9909  155.9210  -32.7652 C.3       3        0    0.0000
     20 C         110.6082  156.8163  -31.6852 C.3       3        0    0.0000
     21 H         108.9150  155.8027  -32.5859 H         3        0    0.0000
     22 H         110.4304  154.9169  -32.7179 H         3        0    0.0000
     23 H         111.6975  156.8581  -31.8086 H         3        0    0.0000
     24 H         110.2393  157.8439  -31.7924 H         3        0    0.0000
     25 C         110.2828  156.3111  -30.2373 C.3       4        0    0.0000
     26 C         110.8850  157.2165  -29.1572 C.3       4        0    0.0000
     27 H         109.1935  156.2568  -30.1182 H         4        0    0.0000
     28 H         110.6633  155.2882  -30.1258 H         4        0    0.0000
     29 H         111.9747  157.2669  -29.2732 H         4        0    0.0000
     30 H         110.5082  158.2405  -29.2716 H         4        0    0.0000
     31 C         110.5538  156.7151  -27.7092 C.3       5        0    0.0000
     32 C         111.1535  157.6222  -26.6291 C.3       5        0    0.0000
     33 H         109.4641  156.6626  -27.5939 H         5        0    0.0000
     34 H         110.9324  155.6920  -27.5940 H         5        0    0.0000
     35 H         112.2433  157.6736  -26.7437 H         5        0    0.0000
     36 H         110.7759  158.6457  -26.7452 H         5        0    0.0000
     37 C         110.8207  157.1219  -25.1812 C.3       6        0    0.0000
     38 C         111.4357  158.0187  -24.1011 C.3       6        0    0.0000
     39 H         109.7308  157.0832  -25.0623 H         6        0    0.0000
     40 H         111.1865  156.0937  -25.0695 H         6        0    0.0000
     41 H         112.5255  158.0582  -24.2207 H         6        0    0.0000
     42 H         111.0691  159.0467  -24.2122 H         6        0    0.0000
     43 C         111.1040  157.5177  -22.6532 C.3       7        0    0.0000
     44 C         111.1530  158.6499  -21.6213 C.3       7        0    0.0000
     45 H         110.1088  157.0560  -22.6581 H         7        0    0.0000
     46 H         111.8159  156.7289  -22.3803 H         7        0    0.0000
     47 H         112.1707  159.0539  -21.5543 H         7        0    0.0000
     48 H         110.5061  159.4769  -21.9393 H         7        0    0.0000
     49 C         110.7029  158.1752  -20.1967 C.3       8        0    0.0000
     50 C         111.7242  158.5394  -19.1135 C.3       8        0    0.0000
     51 H         109.7306  158.6271  -19.9642 H         8        0    0.0000
     52 H         110.5485  157.0892  -20.2182 H         8        0    0.0000
     53 H         112.7432  158.4127  -19.4995 H         8        0    0.0000
     54 H         111.6205  159.5965  -18.8389 H         8        0    0.0000
     55 C         111.5599  157.6639  -17.8236 C.3       9        0    0.0000
     56 C         111.2828  158.5119  -16.5774 C.3       9        0    0.0000
     57 H         110.7420  156.9502  -17.9824 H         9        0    0.0000
     58 H         112.4718  157.0711  -17.6801 H         9        0    0.0000
     59 H         112.2127  158.9725  -16.2215 H         9        0    0.0000
     60 H         110.5993  159.3333  -16.8257 H         9        0    0.0000
     61 C         110.6582  157.6694  -15.4123 C.3      10        0    0.0000
     62 C         111.1178  158.1550  -14.0332 C.3      10        0    0.0000
     63 H         109.5648  157.7223  -15.4845 H        10        0    0.0000
     64 H         110.9325  156.6163  -15.5510 H        10        0    0.0000
     65 H         112.2098  158.2588  -14.0156 H        10        0    0.0000
     66 H         110.7034  159.1497  -13.8272 H        10        0    0.0000
     67 C         110.6845  157.1795  -12.8851 C.3      11        0    0.0000
     68 C         110.9615  157.7602  -11.4940 C.3      11        0    0.0000
     69 H         109.6157  156.9577  -12.9941 H        11        0    0.0000
     70 H         111.2178  156.2287  -13.0088 H        11        0    0.0000
     71 H         112.0361  157.9427  -11.3697 H        11        0    0.0000
     72 H         110.4625  158.7312  -11.3855 H        11        0    0.0000
     73 C         110.4740  156.8106  -10.3459 C.3      12        0    0.0000
     74 C         110.7627  157.3854   -8.9548 C.3      12        0    0.0000
     75 H         109.3976  156.6357  -10.4648 H        12        0    0.0000
     76 H         110.9659  155.8366  -10.4599 H        12        0    0.0000
     77 H         111.8388  157.5635   -8.8372 H        12        0    0.0000
     78 H         110.2680  158.3578   -8.8395 H        12        0    0.0000
     79 C         110.2796  156.4335   -7.8067 C.3      13        0    0.0000
     80 C         110.5814  157.0017   -6.4156 C.3      13        0    0.0000
     81 H         109.2015  156.2641   -7.9180 H        13        0    0.0000
     82 H         110.7661  155.4578   -7.9282 H        13        0    0.0000
     83 H         111.6588  157.1771   -6.3065 H        13        0    0.0000
     84 H         110.0897  157.9745   -6.2918 H        13        0    0.0000
     85 C         110.1064  156.0457   -5.2676 C.3      14        0    0.0000
     86 C         110.4764  156.5774   -3.8785 C.3      14        0    0.0000
     87 H         109.0197  155.9151   -5.3431 H        14        0    0.0000
     88 H         110.5542  155.0564   -5.4232 H        14        0    0.0000
     89 H         111.5656  156.6761   -3.7914 H        14        0    0.0000
     90 H         110.0567  157.5809   -3.7358 H        14        0    0.0000
     91 C         109.9600  155.6454   -2.7287 C.3      15        0    0.0000
     92 C         110.1398  156.2773   -1.3439 C.3      15        0    0.0000
     93 H         108.9008  155.4203   -2.9048 H        15        0    0.0000
     94 H         110.4977  154.6905   -2.7791 H        15        0    0.0000
     95 H         111.0617  155.9071   -0.8784 H        15        0    0.0000
     96 H         110.2491  157.3648   -1.4380 H        15        0    0.0000
     97 C         108.9340  155.9712   -0.3901 C.3      16        0    0.0000
     98 C         108.6740  157.1106    0.6015 C.3      16        0    0.0000
     99 H         108.0390  155.7905   -0.9984 H        16        0    0.0000
    100 H         109.1396  155.0400    0.1522 H        16        0    0.0000
    101 H         107.8480  156.8441    1.2725 H        16        0    0.0000
    102 H         109.5563  157.2669    1.2345 H        16        0    0.0000
    103 C         108.3246  158.4578   -0.1198 C.3      17        0    0.0000
    104 C         107.8972  159.5507    0.8662 C.3      17        0    0.0000
    105 H         109.1993  158.7894   -0.6928 H        17        0    0.0000
    106 H         107.5238  158.2726   -0.8463 H        17        0    0.0000
    107 H         107.0557  159.1991    1.4758 H        17        0    0.0000
    108 H         108.7175  159.7732    1.5598 H        17        0    0.0000
    109 C         107.4765  160.8747    0.1398 C.3      18        0    0.0000
    110 C         107.0987  161.9842    1.1274 C.3      18        0    0.0000
    111 H         108.3045  161.2058   -0.4992 H        18        0    0.0000
    112 H         106.6314  160.6596   -0.5258 H        18        0    0.0000
    113 H         106.9374  162.9270    0.5902 H        18        0    0.0000
    114 H         106.1520  161.7389    1.6246 H        18        0    0.0000
    115 C         108.2004  162.2073    2.2201 C.3      19        0    0.0000
    116 C         107.7956  163.2740    3.2436 C.3      19        0    0.0000
    117 H         108.3938  161.2538    2.7270 H        19        0    0.0000
    118 H         109.1358  162.4965    1.7253 H        19        0    0.0000
    119 H         106.7070  163.4095    3.2351 H        19        0    0.0000
    120 H         108.0644  162.9458    4.2553 H        19        0    0.0000
    121 C         108.4792  164.6565    2.9626 C.3      20        0    0.0000
    122 C         108.2502  165.6593    4.0989 C.3      20        0    0.0000
    123 H         109.5541  164.4957    2.8137 H        20        0    0.0000
    124 H         108.0874  165.0597    2.0205 H        20        0    0.0000
    125 H         107.4074  166.3179    3.8552 H        20        0    0.0000
    126 H         107.9792  165.1285    5.0200 H        20        0    0.0000
    127 C         109.5162  166.5408    4.3774 C.3      21        0    0.0000
    128 C         109.3328  167.4521    5.5960 C.3      21        0    0.0000
    129 H         110.3801  165.8815    4.5273 H        21        0    0.0000
    130 H         109.7306  167.1433    3.4860 H        21        0    0.0000
    131 H         108.5349  168.1802    5.4046 H        21        0    0.0000
    132 H         109.0176  166.8602    6.4643 H        21        0    0.0000
    133 C         110.6460  168.2261    5.9620 C.3      22        0    0.0000
    134 C         110.8271  168.3792    7.4762 C.3      22        0    0.0000
    135 H         111.5027  167.6918    5.5328 H        22        0    0.0000
    136 H         110.6191  169.2135    5.4846 H        22        0    0.0000
    137 H         110.3462  169.3030    7.8211 H        22        0    0.0000
    138 H         110.3322  167.5519    7.9998 H        22        0    0.0000
    139 C         112.3378  168.4098    7.8938 C.3      23        0    0.0000
    140 C         112.5977  167.6355    9.1907 C.3      23        0    0.0000
    141 H         112.9388  167.9894    7.0779 H        23        0    0.0000
    142 H         112.6515  169.4546    8.0101 H        23        0    0.0000
    143 H         112.4640  168.2961   10.0563 H        23        0    0.0000
    144 H         111.8668  166.8244    9.2975 H        23        0    0.0000
    145 C         114.0408  167.0250    9.2391 C.3      24        0    0.0000
    146 C         114.2451  166.1129   10.4537 C.3      24        0    0.0000
    147 H         114.2186  166.4640    8.3133 H        24        0    0.0000
    148 H         114.7707  167.8438    9.2565 H        24        0    0.0000
    149 H         114.3221  165.0674   10.1304 H        24        0    0.0000
    150 H         115.1903  166.3584   10.9537 H        24        0    0.0000
    151 C         113.0773  166.2359   11.4922 C.3      25        0    0.0000
    152 C         113.5303  165.9027   12.9180 C.3      25        0    0.0000
    153 H         112.6760  167.2562   11.4538 H        25        0    0.0000
    154 H         112.2631  165.5656   11.1899 H        25        0    0.0000
    155 H         112.6789  165.9636   13.6071 H        25        0    0.0000
    156 H         113.8995  164.8707   12.9638 H        25        0    0.0000
    157 C         114.6590  166.8661   13.4231 C.3      26        0    0.0000
    158 C         114.3483  167.4505   14.8056 C.3      26        0    0.0000
    159 H         115.6073  166.3153   13.4521 H        26        0    0.0000
    160 H         114.7866  167.6749   12.6929 H        26        0    0.0000
    161 H         113.7398  166.7445   15.3842 H        26        0    0.0000
    162 H         115.2781  167.6000   15.3684 H        26        0    0.0000
    163 C         113.5870  168.8178   14.7152 C.3      27        0    0.0000
    164 C         114.2474  169.9077   15.5667 C.3      27        0    0.0000
    165 H         113.5487  169.1325   13.6649 H        27        0    0.0000
    166 H         112.5491  168.6665   15.0367 H        27        0    0.0000
    167 H         113.4807  170.4917   16.0909 H        27        0    0.0000
    168 H         114.8783  169.4509   16.3391 H        27        0    0.0000
    169 C         115.1254  170.8820   14.7080 C.3      28        0    0.0000
    170 C         114.7192  172.3479   14.8954 C.3      28        0    0.0000
    171 H         116.1783  170.7452   14.9839 H        28        0    0.0000
    172 H         115.0373  170.5993   13.6516 H        28        0    0.0000
    173 H         114.1621  172.4669   15.8330 H        28        0    0.0000
    174 H         115.6132  172.9784   14.9779 H        28        0    0.0000
    175 C         113.8361  172.8756   13.7125 C.3      29        0    0.0000
    176 C         114.4944  174.0459   12.9734 C.3      29        0    0.0000
    177 H         113.6475  172.0492   13.0161 H        29        0    0.0000
    178 H         112.8604  173.1823   14.1092 H        29        0    0.0000
    179 H         113.7479  174.8188   12.7524 H        29        0    0.0000
    180 H         115.2536  174.5146   13.6117 H        29        0    0.0000
    181 C         115.1694  173.5968   11.6317 C.3      30        0    0.0000
    182 C         114.7725  174.4931   10.4535 C.3      30        0    0.0000
    183 H         116.2585  173.6081   11.7628 H        30        0    0.0000
    184 H         114.8877  172.5569   11.4249 H        30        0    0.0000
    185 H         113.7838  174.9337   10.6323 H        30        0    0.0000
    186 H         115.4778  175.3285   10.3620 H        30        0    0.0000
    187 C         114.7385  173.7096    9.0961 C.3      31        0    0.0000
    188 C         114.5225  174.6371    7.8953 C.3      31        0    0.0000
    189 H         115.6808  173.1594    8.9817 H        31        0    0.0000
    190 H         113.9392  172.9596    9.1407 H        31        0    0.0000
    191 H         113.5419  175.1237    7.9674 H        31        0    0.0000
    192 H         115.2725  175.4378    7.8987 H        31        0    0.0000
    193 C         114.6073  173.8712    6.5301 C.3      32        0    0.0000
    194 C         114.7906  174.8212    5.3415 C.3      32        0    0.0000
    195 H         115.4411  173.1597    6.5750 H        32        0    0.0000
    196 H         113.6936  173.2780    6.4002 H        32        0    0.0000
    197 H         113.8684  175.3899    5.1688 H        32        0    0.0000
    198 H         115.5759  175.5544    5.5635 H        32        0    0.0000
    199 C         115.1684  174.0592    4.0246 C.3      33        0    0.0000
    200 C         116.0488  174.9039    3.0970 C.3      33        0    0.0000
    201 H         115.6859  173.1291    4.2904 H        33        0    0.0000
    202 H         114.2458  173.7694    3.5067 H        33        0    0.0000
    203 H         115.4269  175.5953    2.5149 H        33        0    0.0000
    204 H         116.7359  175.5208    3.6893 H        33        0    0.0000
    205 C         116.8863  174.0224    2.1076 C.3      34        0    0.0000
    206 C         118.1063  174.7680    1.5557 C.3      34        0    0.0000
    207 H         117.2062  173.1119    2.6293 H        34        0    0.0000
    208 H         116.2370  173.7016    1.2835 H        34        0    0.0000
    209 H         117.7826  175.6369    0.9693 H        34        0    0.0000
    210 H         118.7161  175.1548    2.3816 H        34        0    0.0000
    211 C         119.0024  173.8535    0.6512 C.3      35        0    0.0000
    212 C         119.6841  174.6391   -0.4745 C.3      35        0    0.0000
    213 H         119.7574  173.3653    1.2799 H        35        0    0.0000
    214 H         118.3799  173.0549    0.2290 H        35        0    0.0000
    215 H         119.0092  175.4171   -0.8524 H        35        0    0.0000
    216 H         120.5733  175.1534   -0.0892 H        35        0    0.0000
    217 C         120.1112  173.7171   -1.6682 C.3      36        0    0.0000
    218 C         119.9854  174.4243   -3.0221 C.3      36        0    0.0000
    219 H         121.1462  173.3899   -1.5095 H        36        0    0.0000
    220 H         119.4897  172.8132   -1.6567 H        36        0    0.0000
    221 H         119.0484  174.9932   -3.0637 H        36        0    0.0000
    222 H         120.7998  175.1491   -3.1451 H        36        0    0.0000
    223 C         120.0192  173.4178   -4.2235 C.3      37        0    0.0000
    224 C         119.9422  174.1286   -5.5791 C.3      37        0    0.0000
    225 H         120.9397  172.8242   -4.1617 H        37        0    0.0000
    226 H         119.1834  172.7147   -4.1194 H        37        0    0.0000
    227 H         119.0102  174.7029   -5.6503 H        37        0    0.0000
    228 H         120.7642  174.8490   -5.6734 H        37        0    0.0000
    229 C         120.0100  173.1245   -6.7811 C.3      38        0    0.0000
    230 C         119.9519  173.8368   -8.1370 C.3      38        0    0.0000
    231 H         120.9354  172.5406   -6.7023 H        38        0    0.0000
    232 H         119.1799  172.4125   -6.6944 H        38        0    0.0000
    233 H         119.0234  174.4155   -8.2184 H        38        0    0.0000
    234 H         120.7782  174.5536   -8.2211 H        38        0    0.0000
    235 C         120.0291  172.8334   -9.3390 C.3      39        0    0.0000
    236 C         119.9729  173.5459  -10.6948 C.3      39        0    0.0000
    237 H         120.9569  172.2538   -9.2568 H        39        0    0.0000
    238 H         119.2020  172.1175   -9.2556 H        39        0    0.0000
    239 H         119.0434  174.1227  -10.7784 H        39        0    0.0000
    240 H         120.7979  174.2643  -10.7768 H        39        0    0.0000
    241 C         120.0549  172.5429  -11.8968 C.3      40        0    0.0000
    242 C         119.9960  173.2551  -13.2527 C.3      40        0    0.0000
    243 H         120.9852  171.9674  -11.8143 H        40        0    0.0000
    244 H         119.2309  171.8233  -11.8138 H        40        0    0.0000
    245 H         119.0647  173.8289  -13.3360 H        40        0    0.0000
    246 H         120.8187  173.9762  -13.3348 H        40        0    0.0000
    247 C         120.0810  172.2524  -14.4546 C.3      41        0    0.0000
    248 C         120.0207  172.9645  -15.8105 C.3      41        0    0.0000
    249 H         121.0128  171.6793  -14.3718 H        41        0    0.0000
    250 H         119.2589  171.5307  -14.3719 H        41        0    0.0000
    251 H         119.0917  173.5425  -15.8908 H        41        0    0.0000
    252 H         120.8464  173.6817  -15.8958 H        41        0    0.0000
    253 C         120.0969  171.9610  -17.0125 C.3      42        0    0.0000
    254 C         120.0397  172.6733  -18.3683 C.3      42        0    0.0000
    255 H         121.0247  171.3814  -16.9309 H        42        0    0.0000
    256 H         119.2698  171.2451  -16.9284 H        42        0    0.0000
    257 H         119.1063  173.2434  -18.4546 H        42        0    0.0000
    258 H         120.8597  173.3977  -18.4476 H        42        0    0.0000
    259 C         120.1326  171.6712  -19.5703 C.3      43        0    0.0000
    260 C         120.0717  172.3832  -20.9262 C.3      43        0    0.0000
    261 H         121.0673  171.1030  -19.4854 H        43        0    0.0000
    262 H         119.3142  170.9452  -19.4895 H        43        0    0.0000
    263 H         119.1404  172.9572  -21.0081 H        43        0    0.0000
    264 H         120.8944  173.1040  -21.0099 H        43        0    0.0000
    265 C         120.1543  171.3802  -22.1281 C.3      44        0    0.0000
    266 C         120.0930  172.0921  -23.4840 C.3      44        0    0.0000
    267 H         121.0857  170.8063  -22.0463 H        44        0    0.0000
    268 H         119.3317  170.6592  -22.0442 H        44        0    0.0000
    269 H         120.3193  171.3843  -24.2910 H        44        0    0.0000
    270 H         119.0777  172.4650  -23.6675 H        44        0    0.0000
    271 C         121.0959  173.2939  -23.5699 C.3      45        0    0.0000
    272 C         121.0406  174.0005  -24.9288 C.3      45        0    0.0000
    273 H         120.8657  174.0047  -22.7666 H        45        0    0.0000
    274 H         122.1105  172.9220  -23.3803 H        45        0    0.0000
    275 H         120.7923  175.0603  -24.7919 H        45        0    0.0000
    276 H         122.0258  173.9675  -25.4103 H        45        0    0.0000
    277 C         119.9856  173.3547  -25.8918 C.3      46        0    0.0000
    278 C         120.1971  173.7745  -27.3506 C.3      46        0    0.0000
    279 H         120.0465  172.2630  -25.8020 H        46        0    0.0000
    280 H         118.9806  173.6426  -25.5594 H        46        0    0.0000
    281 H         119.6316  174.6900  -27.5643 H        46        0    0.0000
    282 H         121.2544  174.0095  -27.5249 H        46        0    0.0000
    283 C         119.7542  172.6597  -28.3598 C.3      47        0    0.0000
    284 C         119.9499  173.0861  -29.8189 C.3      47        0    0.0000
    285 H         120.3286  171.7480  -28.1540 H        47        0    0.0000
    286 H         118.7002  172.4160  -28.1773 H        47        0    0.0000
    287 H         119.4144  174.0239  -30.0119 H        47        0    0.0000
    288 H         121.0113  173.2835  -30.0140 H        47        0    0.0000
    289 C         119.4444  171.9986  -30.8285 C.3      48        0    0.0000
    290 C         119.6403  172.4249  -32.2876 C.3      48        0    0.0000
    291 H         119.9799  171.0608  -30.6355 H        48        0    0.0000
    292 H         118.3830  171.8012  -30.6335 H        48        0    0.0000
    293 H         119.4332  171.5809  -32.9571 H        48        0    0.0000
    294 H         118.9259  173.2159  -32.5476 H        48        0    0.0000
    295 C         121.0929  172.9450  -32.5648 C.3      49        0    0.0000
    296 C         121.2773  173.4085  -34.0140 C.3      49        0    0.0000
    297 H         121.3105  173.7702  -31.8753 H        49        0    0.0000
    298 H         121.8056  172.1441  -32.3324 H        49        0    0.0000
    299 H         121.5365  174.4743  -34.0380 H        49        0    0.0000
    300 H         122.1134  172.8704  -34.4775 H        49        0    0.0000
    301 C         119.9894  173.1822  -34.8786 C.3      50        0    0.0000
    302 C         120.2688  173.3058  -36.3804 C.3      50        0    0.0000
    303 H         119.5816  172.1892  -34.6523 H        50        0    0.0000
    304 H         119.2279  173.9118  -34.5764 H        50        0    0.0000
    305 H         120.4811  174.3506  -36.6388 H        50        0    0.0000
    306 H         121.1629  172.7278  -36.6455 H        50        0    0.0000
    307 C         119.0661  172.8041  -37.2518 C.3      51        0    0.0000
    308 C         119.3464  172.9258  -38.7537 C.3      51        0    0.0000
    309 H         118.8529  171.7597  -36.9923 H        51        0    0.0000
    310 H         118.1725  173.3830  -36.9878 H        51        0    0.0000
    311 H         118.5601  172.4176  -39.3255 H        51        0    0.0000
    312 H         119.3246  173.9801  -39.0562 H        51        0    0.0000
    313 C         120.7346  172.3149  -39.1504 C.3      52        0    0.0000
    314 C         121.1594  172.7107  -40.5688 C.3      52        0    0.0000
    315 H         121.4876  172.6479  -38.4255 H        52        0    0.0000
    316 H         120.6773  171.2226  -39.0659 H        52        0    0.0000
    317 H         121.9175  173.5025  -40.5272 H        52        0    0.0000
    318 H         121.6244  171.8555  -41.0746 H        52        0    0.0000
    319 C         119.9513  173.2127  -41.4325 C.3      53        0    0.0000
    320 C         120.3845  173.6594  -42.8331 C.3      53        0    0.0000
    321 H         119.2107  172.4067  -41.5069 H        53        0    0.0000
    322 H         119.4620  174.0426  -40.9076 H        53        0    0.0000
    323 H         120.7174  172.7930  -43.4181 H        53        0    0.0000
    324 H         119.5319  174.0933  -43.3701 H        53        0    0.0000
    325 C         121.5433  174.7142  -42.7885 C.3      54        0    0.0000
    326 C         121.1870  176.0007  -43.5415 C.3      54        0    0.0000
    327 H         121.7728  174.9431  -41.7404 H        54        0    0.0000
    328 H         122.4472  174.2649  -43.2181 H        54        0    0.0000
    329 H         120.9575  175.7718  -44.5896 H        54        0    0.0000
    330 H         120.2831  176.4500  -43.1119 H        54        0    0.0000
    331 H         121.9928  176.7341  -43.5104 H        54        0    0.0000
    332 H         109.2798  157.1087  -40.4349 H         0        0    0.0000
@<TRIPOS>BOND
     1     1     2      1
     2     1     3      1
     3     1     4      1
     4     1   332      H
     5     2     5      1
     6     2     6      1
     7     2     7      1
     8     7     8      1
     9     7     9      1
    10     7    10      1
    11     8    11      1
    12     8    12      1
    13     8    13      1
    14    13    14      1
    15    13    15      1
    16    13    16      1
    17    14    17      1
    18    14    18      1
    19    14    19      1
    20    19    20      1
    21    19    21      1
    22    19    22      1
    23    20    23      1
    24    20    24      1
    25    20    25      1
    26    25    26      1
    27    25    27      1
    28    25    28      1
    29    26    29      1
    30    26    30      1
    31    26    31      1
    32    31    32      1
    33    31    33      1
    34    31    34      1
    35    32    35      1
    36    32    36      1
    37    32    37      1
    38    37    38      1
    39    37    39      1
    40    37    40      1
    41    38    41      1
    42    38    42      1
    43    38    43      1
    44    43    44      1
    45    43    45      1
    46    43    46      1
    47    44    47      1
    48    44    48      1
    49    44    49      1
    50    49    50      1
    51    49    51      1
    52    49    52      1
    53    50    53      1
    54    50    54      1
    55    50    55      1
    56    55    56      1
    57    55    57      1
    58    55    58      1
    59    56    59      1
    60    56    60      1
    61    56    61      1
    62    61    62      1
    63    61    63      1
    64    61    64      1
    65    62    65      1
    66    62    66      1
    67    62    67      1
    68    67    68      1
    69    67    69      1
    70    67    70      1
    71    68    71      1
    72    68    72      1
    73    68    73      1
    74    73    74      1
    75    73    75      1
    76    73    76      1
    77    74    77      1
    78    74    78      1
    79    74    79      1
    80    79    80      1
    81    79    81      1
    82    79    82      1
    83    80    83      1
    84    80    84      1
    85    80    85      1
    86    85    86      1
    87    85    87      1
    88    85    88      1
    89    86    89      1
    90    86    90      1
    91    86    91      1
    92    91    92      1
    93    91    93      1
    94    91    94      1
    95    92    95      1
    96    92    96      1
    97    92    97      1
    98    97    98      1
    99    97    99      1
   100    97   100      1
   101    98   101      1
   102    98   102      1
   103    98   103      1
   104   103   104      1
   105   103   105      1
   106   103   106      1
   107   104   107      1
   108   104   108      1
   109   104   109      1
   110   109   110      1
   111   109   111      1
   112   109   112      1
   113   110   113      1
   114   110   114      1
   115   110   115      1
   116   115   116      1
   117   115   117      1
   118   115   118      1
   119   116   119      1
   120   116   120      1
   121   116   121      1
   122   121   122      1
   123   121   123      1
   124   121   124      1
   125   122   125      1
   126   122   126      1
   127   122   127      1
   128   127   128      1
   129   127   129      1
   130   127   130      1
   131   128   131      1
   132   128   132      1
   133   128   133      1
   134   133   134      1
   135   133   135      1
   136   133   136      1
   137   134   137      1
   138   134   138      1
   139   134   139      1
   140   139   140      1
   141   139   141      1
   142   139   142      1
   143   140   143      1
   144   140   144      1
   145   140   145      1
   146   145   146      1
   147   145   147      1
   148   145   148      1
   149   146   149      1
   150   146   150      1
   151   146   151      1
   152   151   152      1
   153   151   153      1
   154   151   154      1
   155   152   155      1
   156   152   156      1
   157   152   157      1
   158   157   158      1
   159   157   159      1
   160   157   160      1
   161   158   161      1
   162   158   162      1
   163   158   163      1
   164   163   164      1
   165   163   165      1
   166   163   166      1
   167   164   167      1
   168   164   168      1
   169   164   169      1
   170   169   170      1
   171   169   171      1
   172   169   172      1
   173   170   173      1
   174   170   174      1
   175   170   175      1
   176   175   176      1
   177   175   177      1
   178   175   178      1
   179   176   179      1
   180   176   180      1
   181   176   181      1
   182   181   182      1
   183   181   183      1
   184   181   184      1
   185   182   185      1
   186   182   186      1
   187   182   187      1
   188   187   188      1
   189   187   189      1
   190   187   190      1
   191   188   191      1
   192   188   192      1
   193   188   193      1
   194   193   194      1
   195   193   195      1
   196   193   196      1
   197   194   197      1
   198   194   198      1
   199   194   199      1
   200   199   200      1
   201   199   201      1
   202   199   202      1
   203   200   203      1
   204   200   204      1
   205   200   205      1
   206   205   206      1
   207   205   207      1
   208   205   208      1
   209   206   209      1
   210   206   210      1
   211   206   211      1
   212   211   212      1
   213   211   213      1
   214   211   214      1
   215   212   215      1
   216   212   216      1
   217   212   217      1
   218   217   218      1
   219   217   219      1
   220   217   220      1
   221   218   221      1
   222   218   222      1
   223   218   223      1
   224   223   224      1
   225   223   225      1
   226   223   226      1
   227   224   227      1
   228   224   228      1
   229   224   229      1
   230   229   230      1
   231   229   231      1
   232   229   232      1
   233   230   233      1
   234   230   234      1
   235   230   235      1
   236   235   236      1
   237   235   237      1
   238   235   238      1
   239   236   239      1
   240   236   240      1
   241   236   241      1
   242   241   242      1
   243   241   243      1
   244   241   244      1
   245   242   245      1
   246   242   246      1
   247   242   247      1
   248   247   248      1
   249   247   249      1
   250   247   250      1
   251   248   251      1
   252   248   252      1
   253   248   253      1
   254   253   254      1
   255   253   255      1
   256   253   256      1
   257   254   257      1
   258   254   258      1
   259   254   259      1
   260   259   260      1
   261   259   261      1
   262   259   262      1
   263   260   263      1
   264   260   264      1
   265   260   265      1
   266   265   266      1
   267   265   267      1
   268   265   268      1
   269   266   269      1
   270   266   270      1
   271   266   271      1
   272   271   272      1
   273   271   273      1
   274   271   274      1
   275   272   275      1
   276   272   276      1
   277   272   277      1
   278   277   278      1
   279   277   279      1
   280   277   280      1
   281   278   281      1
   282   278   282      1
   283   278   283      1
   284   283   284      1
   285   283   285      1
   286   283   286      1
   287   284   287      1
   288   284   288      1
   289   284   289      1
   290   289   290      1
   291   289   291      1
   292   289   292      1
   293   290   293      1
   294   290   294      1
   295   290   295      1
   296   295   296      1
   297   295   297      1
   298   295   298      1
   299   296   299      1
   300   296   300      1
   301   296   301      1
   302   301   302      1
   303   301   303      1
   304   301   304      1
   305   302   305      1
   306   302   306      1
   307   302   307      1
   308   307   308      1
   309   307   309      1
   310   307   310      1
   311   308   311      1
   312   308   312      1
   313   308   313      1
   314   313   314      1
   315   313   315      1
   316   313   316      1
   317   314   317      1
   318   314   318      1
   319   314   319      1
   320   319   320      1
   321   319   321      1
   322   319   322      1
   323   320   323      1
   324   320   324      1
   325   320   325      1
   326   325   326      1
   327   325   327      1
   328   325   328      1
   329   326   329      1
   330   326   330      1
   331   326   331      H
