###
### Created by PolyChef-cpp17 on Thu Feb 27 19:40:28 2025
###

@<TRIPOS>MOLECULE
NO_INFO
290 289 1 0 0
SMALL
USER_CHARGES


@<TRIPOS>ATOM
      1 C          29.2798  191.7487  -39.3449 C.3       0        0    0.0000
      2 C          27.8706  191.5882  -38.7641 C.3       0        0    0.0000
      3 H          29.9271  190.9366  -38.9913 H         0        0    0.0000
      4 H          29.7280  192.6855  -38.9913 H         0        0    0.0000
      5 H          27.3719  192.5640  -38.7117 H         0        0    0.0000
      6 H          27.2613  190.9580  -39.4238 H         0        0    0.0000
      7 C          27.8874  190.9518  -37.3315 C.3       1        0    0.0000
      8 C          29.1655  191.2951  -36.5584 C.3       1        0    0.0000
      9 H          27.0074  191.3028  -36.7784 H         1        0    0.0000
     10 H          27.7862  189.8636  -37.4268 H         1        0    0.0000
     11 H          30.0456  191.1165  -37.1885 H         1        0    0.0000
     12 H          29.1740  192.3613  -36.3002 H         1        0    0.0000
     13 C          29.3073  190.4554  -35.2423 C.3       2        0    0.0000
     14 C          30.2085  191.1415  -34.2098 C.3       2        0    0.0000
     15 H          28.3088  190.2898  -34.8191 H         2        0    0.0000
     16 H          29.7102  189.4668  -35.4953 H         2        0    0.0000
     17 H          31.2623  191.0166  -34.4881 H         2        0    0.0000
     18 H          30.0119  192.2207  -34.1970 H         2        0    0.0000
     19 C          29.9967  190.5722  -32.7647 C.3       3        0    0.0000
     20 C          30.6250  191.4664  -31.6901 C.3       3        0    0.0000
     21 H          28.9204  190.4637  -32.5816 H         3        0    0.0000
     22 H          30.4278  189.5646  -32.7148 H         3        0    0.0000
     23 H          31.7141  191.4990  -31.8177 H         3        0    0.0000
     24 H          30.2640  192.4965  -31.7998 H         3        0    0.0000
     25 C          30.3008  190.9691  -30.2393 C.3       4        0    0.0000
     26 C          30.9111  191.8756  -29.1646 C.3       4        0    0.0000
     27 H          29.2117  190.9213  -30.1169 H         4        0    0.0000
     28 H          30.6760  189.9446  -30.1246 H         4        0    0.0000
     29 H          32.0008  191.9195  -29.2839 H         4        0    0.0000
     30 H          30.5397  192.9011  -29.2823 H         4        0    0.0000
     31 C          30.5812  191.3821  -27.7137 C.3       5        0    0.0000
     32 C          31.1865  192.2919  -26.6391 C.3       5        0    0.0000
     33 H          29.4915  191.3341  -27.5958 H         5        0    0.0000
     34 H          30.9564  190.3581  -27.5946 H         5        0    0.0000
     35 H          32.2764  192.3382  -26.7557 H         5        0    0.0000
     36 H          30.8130  193.3164  -26.7595 H         5        0    0.0000
     37 C          30.8541  191.8001  -25.1882 C.3       6        0    0.0000
     38 C          31.4867  192.6912  -24.1136 C.3       6        0    0.0000
     39 H          29.7643  191.7768  -25.0637 H         6        0    0.0000
     40 H          31.2062  190.7673  -25.0755 H         6        0    0.0000
     41 H          32.5761  192.7182  -24.2408 H         6        0    0.0000
     42 H          31.1310  193.7232  -24.2234 H         6        0    0.0000
     43 C          31.1597  192.1957  -22.6627 C.3       7        0    0.0000
     44 C          31.0169  193.3557  -21.6712 C.3       7        0    0.0000
     45 H          30.2336  191.6082  -22.6901 H         7        0    0.0000
     46 H          31.9548  191.5153  -22.3338 H         7        0    0.0000
     47 H          31.9820  193.8611  -21.5421 H         7        0    0.0000
     48 H          30.3194  194.1046  -22.0662 H         7        0    0.0000
     49 C          30.5049  192.8786  -20.2684 C.3       8        0    0.0000
     50 C          31.4257  193.3303  -19.1295 C.3       8        0    0.0000
     51 H          29.4918  193.2687  -20.1104 H         8        0    0.0000
     52 H          30.4237  191.7845  -20.2750 H         8        0    0.0000
     53 H          32.4706  193.3191  -19.4636 H         8        0    0.0000
     54 H          31.1960  194.3656  -18.8482 H         8        0    0.0000
     55 C          31.2912  192.4201  -17.8603 C.3       9        0    0.0000
     56 C          31.0026  193.2309  -16.5921 C.3       9        0    0.0000
     57 H          30.4895  191.6911  -18.0313 H         9        0    0.0000
     58 H          32.2180  191.8462  -17.7370 H         9        0    0.0000
     59 H          31.9095  193.7549  -16.2660 H         9        0    0.0000
     60 H          30.2512  194.0022  -16.8016 H         9        0    0.0000
     61 C          30.4885  192.3310  -15.4159 C.3      10        0    0.0000
     62 C          30.8975  192.8785  -14.0440 C.3      10        0    0.0000
     63 H          29.3960  192.2552  -15.4801 H        10        0    0.0000
     64 H          30.8831  191.3160  -15.5487 H        10        0    0.0000
     65 H          31.9743  193.0883  -14.0285 H        10        0    0.0000
     66 H          30.3883  193.8311  -13.8521 H        10        0    0.0000
     67 C          30.5601  191.8820  -12.8819 C.3      11        0    0.0000
     68 C          30.7873  192.5035  -11.4995 C.3      11        0    0.0000
     69 H          29.5159  191.5613  -12.9832 H        11        0    0.0000
     70 H          31.1783  190.9829  -12.9964 H        11        0    0.0000
     71 H          31.8403  192.7886  -11.3837 H        11        0    0.0000
     72 H          30.1989  193.4240  -11.3995 H        11        0    0.0000
     73 C          30.3978  191.5261  -10.3374 C.3      12        0    0.0000
     74 C          30.6360  192.1433   -8.9549 C.3      12        0    0.0000
     75 H          29.3425  191.2477  -10.4483 H        12        0    0.0000
     76 H          30.9800  190.6022  -10.4423 H        12        0    0.0000
     77 H          31.6907  192.4247   -8.8452 H        12        0    0.0000
     78 H          30.0513  193.0654   -8.8488 H        12        0    0.0000
     79 C          30.2509  191.1642   -7.7928 C.3      13        0    0.0000
     80 C          30.5103  191.7729   -6.4103 C.3      13        0    0.0000
     81 H          29.1919  190.8959   -7.8929 H        13        0    0.0000
     82 H          30.8234  190.2356   -7.9084 H        13        0    0.0000
     83 H          31.5668  192.0529   -6.3149 H        13        0    0.0000
     84 H          29.9280  192.6948   -6.2900 H        13        0    0.0000
     85 C          30.1419  190.7872   -5.2484 C.3      14        0    0.0000
     86 C          30.4634  191.3704   -3.8680 C.3      14        0    0.0000
     87 H          29.0740  190.5453   -5.3152 H        14        0    0.0000
     88 H          30.6877  189.8470   -5.3960 H        14        0    0.0000
     89 H          31.5208  191.6587   -3.8184 H        14        0    0.0000
     90 H          29.8796  192.2839   -3.7004 H        14        0    0.0000
     91 C          30.1610  190.3578   -2.7102 C.3      15        0    0.0000
     92 C          30.3842  190.9754   -1.3253 C.3      15        0    0.0000
     93 H          29.1243  190.0116   -2.8050 H        15        0    0.0000
     94 H          30.8006  189.4754   -2.8361 H        15        0    0.0000
     95 H          31.4585  191.0551   -1.1177 H        15        0    0.0000
     96 H          29.9817  191.9956   -1.2991 H        15        0    0.0000
     97 C          29.7102  190.1368   -0.1852 C.3      16        0    0.0000
     98 C          29.7325  190.8658    1.1628 C.3      16        0    0.0000
     99 H          28.6759  189.9133   -0.4749 H        16        0    0.0000
    100 H          30.2288  189.1738   -0.1007 H        16        0    0.0000
    101 H          30.7621  190.9377    1.5346 H        16        0    0.0000
    102 H          29.3692  191.8938    1.0406 H        16        0    0.0000
    103 C          28.8544  190.1447    2.2428 C.3      17        0    0.0000
    104 C          28.8193  190.9115    3.5694 C.3      17        0    0.0000
    105 H          27.8370  190.0262    1.8498 H        17        0    0.0000
    106 H          29.2500  189.1340    2.4029 H        17        0    0.0000
    107 H          29.8270  190.9650    3.9997 H        17        0    0.0000
    108 H          28.4947  191.9453    3.3978 H        17        0    0.0000
    109 C          27.8581  190.2470    4.6145 C.3      18        0    0.0000
    110 C          27.7179  191.0854    5.8898 C.3      18        0    0.0000
    111 H          26.8752  190.1028    4.1491 H        18        0    0.0000
    112 H          28.2397  189.2484    4.8608 H        18        0    0.0000
    113 H          28.6846  191.1523    6.4042 H        18        0    0.0000
    114 H          27.4249  192.1115    5.6352 H        18        0    0.0000
    115 C          26.6591  190.4884    6.8798 C.3      19        0    0.0000
    116 C          26.1864  191.5163    7.9137 C.3      19        0    0.0000
    117 H          25.8044  190.1164    6.3012 H        19        0    0.0000
    118 H          27.0986  189.6201    7.3862 H        19        0    0.0000
    119 H          26.9986  191.7458    8.6145 H        19        0    0.0000
    120 H          25.9245  192.4579    7.4155 H        19        0    0.0000
    121 C          24.9445  191.0127    8.7272 C.3      20        0    0.0000
    122 C          23.9152  192.1236    8.9629 C.3      20        0    0.0000
    123 H          24.4809  190.1792    8.1849 H        20        0    0.0000
    124 H          25.2903  190.6103    9.6874 H        20        0    0.0000
    125 H          24.2646  192.7984    9.7542 H        20        0    0.0000
    126 H          23.8039  192.7317    8.0567 H        20        0    0.0000
    127 C          22.5107  191.5562    9.3665 C.3      21        0    0.0000
    128 C          21.3694  192.5053    8.9849 C.3      21        0    0.0000
    129 H          22.3693  190.5831    8.8799 H        21        0    0.0000
    130 H          22.5011  191.3721   10.4479 H        21        0    0.0000
    131 H          21.4276  193.4232    9.5829 H        21        0    0.0000
    132 H          21.4663  192.8070    7.9345 H        21        0    0.0000
    133 C          19.9592  191.8537    9.1954 C.3      22        0    0.0000
    134 C          18.8477  192.6311    8.4818 C.3      22        0    0.0000
    135 H          19.9894  190.8197    8.8299 H        22        0    0.0000
    136 H          19.7508  191.8016   10.2712 H        22        0    0.0000
    137 H          18.7581  193.6373    8.9096 H        22        0    0.0000
    138 H          19.1001  192.7607    7.4220 H        22        0    0.0000
    139 C          17.4586  191.9121    8.5862 C.3      23        0    0.0000
    140 C          16.4778  192.3840    7.5071 C.3      23        0    0.0000
    141 H          17.6141  190.8291    8.5055 H        23        0    0.0000
    142 H          17.0389  192.0967    9.5828 H        23        0    0.0000
    143 H          16.2150  193.4362    7.6719 H        23        0    0.0000
    144 H          16.9506  192.3284    6.5187 H        23        0    0.0000
    145 C          15.1621  191.5318    7.4865 C.3      24        0    0.0000
    146 C          14.3371  191.7678    6.2166 C.3      24        0    0.0000
    147 H          15.4268  190.4706    7.5714 H        24        0    0.0000
    148 H          14.5663  191.7798    8.3737 H        24        0    0.0000
    149 H          13.9546  192.7959    6.2021 H        24        0    0.0000
    150 H          14.9722  191.6555    5.3291 H        24        0    0.0000
    151 C          13.1278  190.7770    6.1011 C.3      25        0    0.0000
    152 C          12.3990  190.9040    4.7588 C.3      25        0    0.0000
    153 H          13.4964  189.7522    6.2336 H        25        0    0.0000
    154 H          12.4319  190.9707    6.9268 H        25        0    0.0000
    155 H          11.7535  191.7910    4.7637 H        25        0    0.0000
    156 H          13.1248  191.0470    3.9487 H        25        0    0.0000
    157 C          11.5237  189.6440    4.4365 C.3      26        0    0.0000
    158 C          10.8418  189.7452    3.0677 C.3      26        0    0.0000
    159 H          12.1610  188.7518    4.4743 H        26        0    0.0000
    160 H          10.7697  189.5262    5.2246 H        26        0    0.0000
    161 H          10.3437  188.7984    2.8246 H        26        0    0.0000
    162 H          10.0604  190.5148    3.0927 H        26        0    0.0000
    163 C          11.8554  190.0914    1.9231 C.3      27        0    0.0000
    164 C          11.1527  190.3741    0.5907 C.3      27        0    0.0000
    165 H          12.4488  190.9624    2.2277 H        27        0    0.0000
    166 H          12.5577  189.2564    1.8082 H        27        0    0.0000
    167 H          10.8063  191.4146    0.5615 H        27        0    0.0000
    168 H          11.8590  190.2537   -0.2401 H        27        0    0.0000
    169 C           9.9266  189.4266    0.3529 C.3      28        0    0.0000
    170 C           9.2822  189.6441   -1.0205 C.3      28        0    0.0000
    171 H          10.2596  188.3860    0.4517 H        28        0    0.0000
    172 H           9.1884  189.5978    1.1462 H        28        0    0.0000
    173 H           8.4979  188.8962   -1.1908 H        28        0    0.0000
    174 H           8.7942  190.6260   -1.0558 H        28        0    0.0000
    175 C          10.3258  189.5564   -2.1870 C.3      29        0    0.0000
    176 C           9.7627  190.0845   -3.5111 C.3      29        0    0.0000
    177 H          11.2202  190.1256   -1.9049 H        29        0    0.0000
    178 H          10.6405  188.5118   -2.3021 H        29        0    0.0000
    179 H           8.8991  189.4824   -3.8195 H        29        0    0.0000
    180 H           9.4005  191.1121   -3.3826 H        29        0    0.0000
    181 C          10.8288  190.0645   -4.6602 C.3      30        0    0.0000
    182 C          10.2250  190.4352   -6.0192 C.3      30        0    0.0000
    183 H          11.6369  190.7612   -4.4050 H        30        0    0.0000
    184 H          11.2782  189.0648   -4.7082 H        30        0    0.0000
    185 H           9.1883  190.0814   -6.0793 H        30        0    0.0000
    186 H          10.1928  191.5259   -6.1316 H        30        0    0.0000
    187 C          11.0363  189.8277   -7.2153 C.3      31        0    0.0000
    188 C          10.4429  190.2132   -8.5748 C.3      31        0    0.0000
    189 H          12.0761  190.1709   -7.1477 H        31        0    0.0000
    190 H          11.0573  188.7359   -7.1100 H        31        0    0.0000
    191 H           9.4304  189.8026   -8.6734 H        31        0    0.0000
    192 H          10.3491  191.3037   -8.6488 H        31        0    0.0000
    193 C          11.3155  189.6988   -9.7713 C.3      32        0    0.0000
    194 C          10.7186  190.0785  -11.1309 C.3      32        0    0.0000
    195 H          12.3267  190.1134   -9.6754 H        32        0    0.0000
    196 H          11.4133  188.6088   -9.6946 H        32        0    0.0000
    197 H           9.6777  189.7376  -11.1931 H        32        0    0.0000
    198 H          10.6999  191.1698  -11.2420 H        32        0    0.0000
    199 C          11.5243  189.4626  -12.3263 C.3      33        0    0.0000
    200 C          10.9364  189.8548  -13.6863 C.3      33        0    0.0000
    201 H          12.5677  189.7945  -12.2577 H        33        0    0.0000
    202 H          11.5335  188.3707  -12.2212 H        33        0    0.0000
    203 H          11.6092  189.5374  -14.4926 H        33        0    0.0000
    204 H           9.9837  189.3354  -13.8482 H        33        0    0.0000
    205 C          10.6967  191.3993  -13.8068 C.3      34        0    0.0000
    206 C          10.1133  191.7920  -15.1686 C.3      34        0    0.0000
    207 H          10.0210  191.7161  -13.0026 H        34        0    0.0000
    208 H          11.6486  191.9189  -13.6415 H        34        0    0.0000
    209 H           9.0675  191.4678  -15.2374 H        34        0    0.0000
    210 H          10.1124  192.8837  -15.2768 H        34        0    0.0000
    211 C          10.9157  191.1667  -16.3613 C.3      35        0    0.0000
    212 C          10.1019  191.1432  -17.6599 C.3      35        0    0.0000
    213 H          11.8389  191.7413  -16.5062 H        35        0    0.0000
    214 H          11.2181  190.1480  -16.0885 H        35        0    0.0000
    215 H           9.1159  190.6982  -17.4780 H        35        0    0.0000
    216 H           9.9254  192.1673  -18.0117 H        35        0    0.0000
    217 C          10.8191  190.3353  -18.7959 C.3      36        0    0.0000
    218 C          10.1134  190.4836  -20.1484 C.3      36        0    0.0000
    219 H          11.8576  190.6803  -18.8737 H        36        0    0.0000
    220 H          10.8592  189.2779  -18.5065 H        36        0    0.0000
    221 H           9.3037  189.7482  -20.2328 H        36        0    0.0000
    222 H           9.6483  191.4743  -20.2234 H        36        0    0.0000
    223 C          11.0960  190.2940  -21.3551 C.3      37        0    0.0000
    224 C          10.3898  190.4398  -22.7075 C.3      37        0    0.0000
    225 H          11.9047  191.0305  -21.2716 H        37        0    0.0000
    226 H          11.5624  189.3039  -21.2791 H        37        0    0.0000
    227 H           9.5766  189.7078  -22.7881 H        37        0    0.0000
    228 H           9.9292  191.4323  -22.7863 H        37        0    0.0000
    229 C          11.3704  190.2406  -23.9143 C.3      38        0    0.0000
    230 C          10.6642  190.3860  -25.2667 C.3      38        0    0.0000
    231 H          12.1834  190.9727  -23.8338 H        38        0    0.0000
    232 H          11.8312  189.2481  -23.8353 H        38        0    0.0000
    233 H           9.8438  189.6616  -25.3425 H        38        0    0.0000
    234 H          10.2132  191.3826  -25.3504 H        38        0    0.0000
    235 C          11.6414  190.1707  -26.4734 C.3      39        0    0.0000
    236 C          10.9357  190.3186  -27.8259 C.3      39        0    0.0000
    237 H          12.4628  190.8939  -26.3966 H        39        0    0.0000
    238 H          12.0910  189.1734  -26.3908 H        39        0    0.0000
    239 H          10.1365  189.5726  -27.9167 H        39        0    0.0000
    240 H          10.4569  191.3032  -27.8947 H        39        0    0.0000
    241 C          11.9226  190.1512  -29.0324 C.3      40        0    0.0000
    242 C          11.2159  190.2938  -30.3849 C.3      40        0    0.0000
    243 H          12.7197  190.8997  -28.9436 H        40        0    0.0000
    244 H          12.4042  189.1680  -28.9614 H        40        0    0.0000
    245 H          10.9313  191.3400  -30.5521 H        40        0    0.0000
    246 H          11.9001  190.0197  -31.1975 H        40        0    0.0000
    247 C           9.9322  189.3993  -30.4818 C.3      41        0    0.0000
    248 C           9.2107  189.5621  -31.8241 C.3      41        0    0.0000
    249 H          10.2198  188.3509  -30.3341 H        41        0    0.0000
    250 H           9.2567  189.6597  -29.6576 H        41        0    0.0000
    251 H           8.4364  188.7923  -31.9308 H        41        0    0.0000
    252 H           8.6984  190.5315  -31.8606 H        41        0    0.0000
    253 C          10.1926  189.4634  -33.0422 C.3      42        0    0.0000
    254 C           9.6042  190.0835  -34.3143 C.3      42        0    0.0000
    255 H          11.1329  189.9640  -32.7799 H        42        0    0.0000
    256 H          10.4355  188.4078  -33.2159 H        42        0    0.0000
    257 H           8.7073  189.5317  -34.6216 H        42        0    0.0000
    258 H           9.2875  191.1154  -34.1180 H        42        0    0.0000
    259 C          10.6274  190.0864  -35.5020 C.3      43        0    0.0000
    260 C           9.9799  190.5080  -36.8256 C.3      43        0    0.0000
    261 H          11.4540  190.7641  -35.2549 H        43        0    0.0000
    262 H          11.0606  189.0830  -35.5979 H        43        0    0.0000
    263 H           8.9626  190.1027  -36.8926 H        43        0    0.0000
    264 H           9.8871  191.6003  -36.8678 H        43        0    0.0000
    265 C          10.8004  190.0221  -38.0697 C.3      44        0    0.0000
    266 C          10.1469  190.4341  -39.3935 C.3      44        0    0.0000
    267 H          11.8152  190.4341  -38.0069 H        44        0    0.0000
    268 H          10.9001  188.9305  -38.0232 H        44        0    0.0000
    269 H          10.2526  191.5155  -39.5446 H        44        0    0.0000
    270 H          10.6585  189.9472  -40.2330 H        44        0    0.0000
    271 C           8.6248  190.0630  -39.4454 C.3      45        0    0.0000
    272 C           7.9581  190.5259  -40.7456 C.3      45        0    0.0000
    273 H           8.5218  188.9762  -39.3362 H        45        0    0.0000
    274 H           8.1208  190.5155  -38.5824 H        45        0    0.0000
    275 H           7.4658  189.6784  -41.2384 H        45        0    0.0000
    276 H           7.1741  191.2610  -40.5252 H        45        0    0.0000
    277 C           8.9836  191.1650  -41.7442 C.3      46        0    0.0000
    278 C           8.2923  191.8391  -42.9345 C.3      46        0    0.0000
    279 H           9.5967  191.8956  -41.2021 H        46        0    0.0000
    280 H           9.6659  190.3827  -42.0992 H        46        0    0.0000
    281 H           8.9425  191.8022  -43.8174 H        46        0    0.0000
    282 H           7.3761  191.2949  -43.1950 H        46        0    0.0000
    283 C           7.9253  193.3344  -42.6394 C.3      47        0    0.0000
    284 C           8.1634  194.2411  -43.8519 C.3      47        0    0.0000
    285 H           6.8735  193.3862  -42.3318 H        47        0    0.0000
    286 H           8.5206  193.6829  -41.7864 H        47        0    0.0000
    287 H           9.2152  194.1892  -44.1596 H        47        0    0.0000
    288 H           7.5681  193.8925  -44.7050 H        47        0    0.0000
    289 H           7.9082  195.2807  -43.6468 H        47        0    0.0000
    290 H          29.2798  191.7487  -40.4349 H         0        0    0.0000
@<TRIPOS>BOND
     1     1     2      1
     2     1     3      1
     3     1     4      1
     4     1   290      H
     5     2     5      1
     6     2     6      1
     7     2     7      1
     8     7     8      1
     9     7     9      1
    10     7    10      1
    11     8    11      1
    12     8    12      1
    13     8    13      1
    14    13    14      1
    15    13    15      1
    16    13    16      1
    17    14    17      1
    18    14    18      1
    19    14    19      1
    20    19    20      1
    21    19    21      1
    22    19    22      1
    23    20    23      1
    24    20    24      1
    25    20    25      1
    26    25    26      1
    27    25    27      1
    28    25    28      1
    29    26    29      1
    30    26    30      1
    31    26    31      1
    32    31    32      1
    33    31    33      1
    34    31    34      1
    35    32    35      1
    36    32    36      1
    37    32    37      1
    38    37    38      1
    39    37    39      1
    40    37    40      1
    41    38    41      1
    42    38    42      1
    43    38    43      1
    44    43    44      1
    45    43    45      1
    46    43    46      1
    47    44    47      1
    48    44    48      1
    49    44    49      1
    50    49    50      1
    51    49    51      1
    52    49    52      1
    53    50    53      1
    54    50    54      1
    55    50    55      1
    56    55    56      1
    57    55    57      1
    58    55    58      1
    59    56    59      1
    60    56    60      1
    61    56    61      1
    62    61    62      1
    63    61    63      1
    64    61    64      1
    65    62    65      1
    66    62    66      1
    67    62    67      1
    68    67    68      1
    69    67    69      1
    70    67    70      1
    71    68    71      1
    72    68    72      1
    73    68    73      1
    74    73    74      1
    75    73    75      1
    76    73    76      1
    77    74    77      1
    78    74    78      1
    79    74    79      1
    80    79    80      1
    81    79    81      1
    82    79    82      1
    83    80    83      1
    84    80    84      1
    85    80    85      1
    86    85    86      1
    87    85    87      1
    88    85    88      1
    89    86    89      1
    90    86    90      1
    91    86    91      1
    92    91    92      1
    93    91    93      1
    94    91    94      1
    95    92    95      1
    96    92    96      1
    97    92    97      1
    98    97    98      1
    99    97    99      1
   100    97   100      1
   101    98   101      1
   102    98   102      1
   103    98   103      1
   104   103   104      1
   105   103   105      1
   106   103   106      1
   107   104   107      1
   108   104   108      1
   109   104   109      1
   110   109   110      1
   111   109   111      1
   112   109   112      1
   113   110   113      1
   114   110   114      1
   115   110   115      1
   116   115   116      1
   117   115   117      1
   118   115   118      1
   119   116   119      1
   120   116   120      1
   121   116   121      1
   122   121   122      1
   123   121   123      1
   124   121   124      1
   125   122   125      1
   126   122   126      1
   127   122   127      1
   128   127   128      1
   129   127   129      1
   130   127   130      1
   131   128   131      1
   132   128   132      1
   133   128   133      1
   134   133   134      1
   135   133   135      1
   136   133   136      1
   137   134   137      1
   138   134   138      1
   139   134   139      1
   140   139   140      1
   141   139   141      1
   142   139   142      1
   143   140   143      1
   144   140   144      1
   145   140   145      1
   146   145   146      1
   147   145   147      1
   148   145   148      1
   149   146   149      1
   150   146   150      1
   151   146   151      1
   152   151   152      1
   153   151   153      1
   154   151   154      1
   155   152   155      1
   156   152   156      1
   157   152   157      1
   158   157   158      1
   159   157   159      1
   160   157   160      1
   161   158   161      1
   162   158   162      1
   163   158   163      1
   164   163   164      1
   165   163   165      1
   166   163   166      1
   167   164   167      1
   168   164   168      1
   169   164   169      1
   170   169   170      1
   171   169   171      1
   172   169   172      1
   173   170   173      1
   174   170   174      1
   175   170   175      1
   176   175   176      1
   177   175   177      1
   178   175   178      1
   179   176   179      1
   180   176   180      1
   181   176   181      1
   182   181   182      1
   183   181   183      1
   184   181   184      1
   185   182   185      1
   186   182   186      1
   187   182   187      1
   188   187   188      1
   189   187   189      1
   190   187   190      1
   191   188   191      1
   192   188   192      1
   193   188   193      1
   194   193   194      1
   195   193   195      1
   196   193   196      1
   197   194   197      1
   198   194   198      1
   199   194   199      1
   200   199   200      1
   201   199   201      1
   202   199   202      1
   203   200   203      1
   204   200   204      1
   205   200   205      1
   206   205   206      1
   207   205   207      1
   208   205   208      1
   209   206   209      1
   210   206   210      1
   211   206   211      1
   212   211   212      1
   213   211   213      1
   214   211   214      1
   215   212   215      1
   216   212   216      1
   217   212   217      1
   218   217   218      1
   219   217   219      1
   220   217   220      1
   221   218   221      1
   222   218   222      1
   223   218   223      1
   224   223   224      1
   225   223   225      1
   226   223   226      1
   227   224   227      1
   228   224   228      1
   229   224   229      1
   230   229   230      1
   231   229   231      1
   232   229   232      1
   233   230   233      1
   234   230   234      1
   235   230   235      1
   236   235   236      1
   237   235   237      1
   238   235   238      1
   239   236   239      1
   240   236   240      1
   241   236   241      1
   242   241   242      1
   243   241   243      1
   244   241   244      1
   245   242   245      1
   246   242   246      1
   247   242   247      1
   248   247   248      1
   249   247   249      1
   250   247   250      1
   251   248   251      1
   252   248   252      1
   253   248   253      1
   254   253   254      1
   255   253   255      1
   256   253   256      1
   257   254   257      1
   258   254   258      1
   259   254   259      1
   260   259   260      1
   261   259   261      1
   262   259   262      1
   263   260   263      1
   264   260   264      1
   265   260   265      1
   266   265   266      1
   267   265   267      1
   268   265   268      1
   269   266   269      1
   270   266   270      1
   271   266   271      1
   272   271   272      1
   273   271   273      1
   274   271   274      1
   275   272   275      1
   276   272   276      1
   277   272   277      1
   278   277   278      1
   279   277   279      1
   280   277   280      1
   281   278   281      1
   282   278   282      1
   283   278   283      1
   284   283   284      1
   285   283   285      1
   286   283   286      1
   287   284   287      1
   288   284   288      1
   289   284   289      H
