###
### Created by PolyChef-cpp17 on Thu Feb 27 19:40:28 2025
###

@<TRIPOS>MOLECULE
NO_INFO
296 295 1 0 0
SMALL
USER_CHARGES


@<TRIPOS>ATOM
      1 C         129.2798  122.4687  -39.3449 C.3       0        0    0.0000
      2 C         127.8706  122.3082  -38.7641 C.3       0        0    0.0000
      3 H         129.9271  121.6566  -38.9913 H         0        0    0.0000
      4 H         129.7280  123.4055  -38.9913 H         0        0    0.0000
      5 H         127.3726  123.2842  -38.7100 H         0        0    0.0000
      6 H         127.2607  121.6796  -39.4248 H         0        0    0.0000
      7 C         127.8872  121.6694  -37.3326 C.3       1        0    0.0000
      8 C         129.1623  122.0167  -36.5563 C.3       1        0    0.0000
      9 H         127.0047  122.0157  -36.7806 H         1        0    0.0000
     10 H         127.7908  120.5809  -37.4300 H         1        0    0.0000
     11 H         130.0446  121.8411  -37.1843 H         1        0    0.0000
     12 H         129.1667  123.0829  -36.2979 H         1        0    0.0000
     13 C         129.3037  121.1772  -35.2400 C.3       2        0    0.0000
     14 C         130.2070  121.8621  -34.2085 C.3       2        0    0.0000
     15 H         128.3053  121.0136  -34.8160 H         2        0    0.0000
     16 H         129.7045  120.1878  -35.4930 H         2        0    0.0000
     17 H         131.2603  121.7360  -34.4883 H         2        0    0.0000
     18 H         130.0116  122.9415  -34.1952 H         2        0    0.0000
     19 C         129.9965  121.2926  -32.7633 C.3       3        0    0.0000
     20 C         130.6259  122.1866  -31.6892 C.3       3        0    0.0000
     21 H         128.9204  121.1842  -32.5792 H         3        0    0.0000
     22 H         130.4276  120.2850  -32.7140 H         3        0    0.0000
     23 H         131.7149  122.2192  -31.8178 H         3        0    0.0000
     24 H         130.2648  123.2168  -31.7983 H         3        0    0.0000
     25 C         130.3032  121.6891  -30.2381 C.3       4        0    0.0000
     26 C         130.9079  122.5998  -29.1639 C.3       4        0    0.0000
     27 H         129.2142  121.6358  -30.1166 H         4        0    0.0000
     28 H         130.6835  120.6666  -30.1221 H         4        0    0.0000
     29 H         131.9975  122.6484  -29.2817 H         4        0    0.0000
     30 H         130.5321  123.6235  -29.2836 H         4        0    0.0000
     31 C         130.5781  122.1070  -27.7127 C.3       5        0    0.0000
     32 C         131.1874  123.0146  -26.6385 C.3       5        0    0.0000
     33 H         129.4884  122.0623  -27.5936 H         5        0    0.0000
     34 H         130.9502  121.0818  -27.5944 H         5        0    0.0000
     35 H         132.2768  123.0613  -26.7593 H         5        0    0.0000
     36 H         130.8133  124.0392  -26.7553 H         5        0    0.0000
     37 C         130.8607  122.5197  -25.1874 C.3       6        0    0.0000
     38 C         131.4201  123.4593  -24.1135 C.3       6        0    0.0000
     39 H         129.7724  122.4318  -25.0804 H         6        0    0.0000
     40 H         131.2726  121.5114  -25.0566 H         6        0    0.0000
     41 H         132.5091  123.5425  -24.2167 H         6        0    0.0000
     42 H         131.0129  124.4691  -24.2480 H         6        0    0.0000
     43 C         131.0861  122.9690  -22.6625 C.3       7        0    0.0000
     44 C         132.2167  123.2707  -21.6727 C.3       7        0    0.0000
     45 H         130.1577  123.4507  -22.3314 H         7        0    0.0000
     46 H         130.8886  121.8902  -22.6905 H         7        0    0.0000
     47 H         133.1733  122.9140  -22.0743 H         7        0    0.0000
     48 H         132.3172  124.3544  -21.5353 H         7        0    0.0000
     49 C         131.9758  122.6043  -20.2744 C.3       8        0    0.0000
     50 C         132.0365  123.6203  -19.1285 C.3       8        0    0.0000
     51 H         130.9984  122.1059  -20.2839 H         8        0    0.0000
     52 H         132.7277  121.8201  -20.1221 H         8        0    0.0000
     53 H         133.0802  123.8090  -18.8481 H         8        0    0.0000
     54 H         131.6194  124.5810  -19.4551 H         8        0    0.0000
     55 C         131.2527  123.1339  -17.8610 C.3       9        0    0.0000
     56 C         132.1008  123.2151  -16.5870 C.3       9        0    0.0000
     57 H         130.3473  123.7433  -17.7497 H         9        0    0.0000
     58 H         130.9194  122.1018  -18.0259 H         9        0    0.0000
     59 H         133.1105  122.8332  -16.7823 H         9        0    0.0000
     60 H         132.2143  124.2612  -16.2767 H         9        0    0.0000
     61 C         131.4733  122.4020  -15.4027 C.3      10        0    0.0000
     62 C         131.8192  123.0048  -14.0367 C.3      10        0    0.0000
     63 H         130.3847  122.3686  -15.5344 H        10        0    0.0000
     64 H         131.8291  121.3657  -15.4576 H        10        0    0.0000
     65 H         132.8963  122.9156  -13.8480 H        10        0    0.0000
     66 H         131.5857  124.0767  -14.0285 H        10        0    0.0000
     67 C         131.0419  122.3093  -12.8664 C.3      11        0    0.0000
     68 C         131.5356  122.7659  -11.4891 C.3      11        0    0.0000
     69 H         129.9721  122.5272  -12.9738 H        11        0    0.0000
     70 H         131.1534  121.2224  -12.9646 H        11        0    0.0000
     71 H         132.6139  122.5862  -11.3974 H        11        0    0.0000
     72 H         131.3855  123.8466  -11.3750 H        11        0    0.0000
     73 C         130.7989  122.0272  -10.3191 C.3      12        0    0.0000
     74 C         131.2741  122.5024   -8.9416 C.3      12        0    0.0000
     75 H         129.7190  122.1912  -10.4216 H        12        0    0.0000
     76 H         130.9648  120.9477  -10.4224 H        12        0    0.0000
     77 H         132.3531  122.3337   -8.8371 H        12        0    0.0000
     78 H         131.1129  123.5828   -8.8402 H        12        0    0.0000
     79 C         130.5323  121.7688   -7.7715 C.3      13        0    0.0000
     80 C         131.0154  122.2361   -6.3941 C.3      13        0    0.0000
     81 H         129.4540  121.9443   -7.8714 H        13        0    0.0000
     82 H         130.6867  120.6879   -7.8776 H        13        0    0.0000
     83 H         132.0943  122.0632   -6.2953 H        13        0    0.0000
     84 H         130.8584  123.3165   -6.2870 H        13        0    0.0000
     85 C         130.2764  121.4996   -5.2241 C.3      14        0    0.0000
     86 C         130.7740  121.9520   -3.8468 C.3      14        0    0.0000
     87 H         129.1989  121.6849   -5.3142 H        14        0    0.0000
     88 H         130.4209  120.4183   -5.3397 H        14        0    0.0000
     89 H         131.8537  121.7773   -3.7609 H        14        0    0.0000
     90 H         130.6190  123.0314   -3.7267 H        14        0    0.0000
     91 C         130.0464  121.2038   -2.6771 C.3      15        0    0.0000
     92 C         130.5083  121.6915   -1.2994 C.3      15        0    0.0000
     93 H         128.9642  121.3484   -2.7839 H        15        0    0.0000
     94 H         130.2318  120.1271   -2.7766 H        15        0    0.0000
     95 H         131.5805  121.4977   -1.1718 H        15        0    0.0000
     96 H         130.3727  122.7772   -1.2198 H        15        0    0.0000
     97 C         129.7269  120.9977   -0.1309 C.3      16        0    0.0000
     98 C         130.1366  121.5385    1.2434 C.3      16        0    0.0000
     99 H         128.6512  121.1457   -0.2880 H        16        0    0.0000
    100 H         129.9064  119.9165   -0.1784 H        16        0    0.0000
    101 H         130.2353  120.7125    1.9586 H        16        0    0.0000
    102 H         131.1204  122.0198    1.1802 H        16        0    0.0000
    103 C         129.1029  122.5738    1.8067 C.3      17        0    0.0000
    104 C         129.5007  123.0972    3.1912 C.3      17        0    0.0000
    105 H         129.0169  123.4081    1.0996 H        17        0    0.0000
    106 H         128.1156  122.0977    1.8539 H        17        0    0.0000
    107 H         129.5815  124.1911    3.1709 H        17        0    0.0000
    108 H         128.7219  122.8524    3.9240 H        17        0    0.0000
    109 C         130.8636  122.4990    3.6834 C.3      18        0    0.0000
    110 C         131.2544  123.0113    5.0741 C.3      18        0    0.0000
    111 H         130.7863  121.4047    3.6937 H        18        0    0.0000
    112 H         131.6445  122.7528    2.9559 H        18        0    0.0000
    113 H         130.6147  122.5518    5.8377 H        18        0    0.0000
    114 H         132.2850  122.7167    5.3076 H        18        0    0.0000
    115 C         131.1366  124.5704    5.1876 C.3      19        0    0.0000
    116 C         131.5600  125.0860    6.5674 C.3      19        0    0.0000
    117 H         131.7568  125.0296    4.4078 H        19        0    0.0000
    118 H         130.1001  124.8628    4.9786 H        19        0    0.0000
    119 H         131.6003  126.1823    6.5632 H        19        0    0.0000
    120 H         130.8149  124.8009    7.3204 H        19        0    0.0000
    121 C         132.9591  124.5307    7.0054 C.3      20        0    0.0000
    122 C         133.4525  125.1640    8.3110 C.3      20        0    0.0000
    123 H         132.8875  123.4419    7.1190 H        20        0    0.0000
    124 H         133.6811  124.7168    6.2007 H        20        0    0.0000
    125 H         132.8086  124.8573    9.1447 H        20        0    0.0000
    126 H         134.4626  124.8055    8.5447 H        20        0    0.0000
    127 C         133.4758  126.7298    8.2401 C.3      21        0    0.0000
    128 C         133.9021  127.3651    9.5681 C.3      21        0    0.0000
    129 H         134.1596  127.0374    7.4393 H        21        0    0.0000
    130 H         132.4777  127.0858    7.9561 H        21        0    0.0000
    131 H         133.0602  127.3673   10.2715 H        21        0    0.0000
    132 H         134.6984  126.7695   10.0316 H        21        0    0.0000
    133 C         134.4123  128.8362    9.3862 C.3      22        0    0.0000
    134 C         135.1553  129.3506   10.6241 C.3      22        0    0.0000
    135 H         135.0700  128.8764    8.5091 H        22        0    0.0000
    136 H         133.5542  129.4834    9.1665 H        22        0    0.0000
    137 H         134.4650  129.4238   11.4737 H        22        0    0.0000
    138 H         135.9387  128.6399   10.9151 H        22        0    0.0000
    139 C         135.8105  130.7542   10.3832 C.3      23        0    0.0000
    140 C         137.2015  130.8624   11.0176 C.3      23        0    0.0000
    141 H         135.8748  130.9336    9.3028 H        23        0    0.0000
    142 H         135.1493  131.5281   10.7923 H        23        0    0.0000
    143 H         137.1126  130.9376   12.1085 H        23        0    0.0000
    144 H         137.7811  129.9543   10.8106 H        23        0    0.0000
    145 C         138.0006  132.1033   10.4891 C.3      24        0    0.0000
    146 C         138.3826  133.0706   11.6149 C.3      24        0    0.0000
    147 H         138.9028  131.7498    9.9746 H        24        0    0.0000
    148 H         137.3922  132.6219    9.7378 H        24        0    0.0000
    149 H         137.6947  132.9531   12.4614 H        24        0    0.0000
    150 H         139.3863  132.8343   11.9895 H        24        0    0.0000
    151 C         138.3571  134.5665   11.1470 C.3      25        0    0.0000
    152 C         139.7162  135.0311   10.6120 C.3      25        0    0.0000
    153 H         137.5887  134.6817   10.3726 H        25        0    0.0000
    154 H         138.0502  135.1960   11.9915 H        25        0    0.0000
    155 H         139.9415  136.0390   10.9819 H        25        0    0.0000
    156 H         140.5116  134.3737   10.9844 H        25        0    0.0000
    157 C         139.7645  135.0452    9.0452 C.3      26        0    0.0000
    158 C         140.3397  136.3545    8.4937 C.3      26        0    0.0000
    159 H         140.3677  134.1955    8.7023 H        26        0    0.0000
    160 H         138.7500  134.8877    8.6587 H        26        0    0.0000
    161 H         140.1243  137.1800    9.1833 H        26        0    0.0000
    162 H         141.4318  136.2834    8.4187 H        26        0    0.0000
    163 C         139.7583  136.7107    7.0820 C.3      27        0    0.0000
    164 C         140.7821  137.4300    6.1969 C.3      27        0    0.0000
    165 H         139.4227  135.7870    6.5945 H        27        0    0.0000
    166 H         138.8684  137.3385    7.2142 H        27        0    0.0000
    167 H         140.9755  138.4368    6.5874 H        27        0    0.0000
    168 H         141.7395  136.8946    6.2178 H        27        0    0.0000
    169 C         140.3020  137.5486    4.7093 C.3      28        0    0.0000
    170 C         141.3040  138.3101    3.8345 C.3      28        0    0.0000
    171 H         140.1425  136.5402    4.3078 H        28        0    0.0000
    172 H         139.3278  138.0527    4.6913 H        28        0    0.0000
    173 H         141.4646  139.3180    4.2368 H        28        0    0.0000
    174 H         142.2779  137.8053    3.8515 H        28        0    0.0000
    175 C         140.8230  138.4304    2.3474 C.3      29        0    0.0000
    176 C         141.8930  139.0459    1.4388 C.3      29        0    0.0000
    177 H         140.5484  137.4328    1.9828 H        29        0    0.0000
    178 H         139.9103  139.0384    2.3190 H        29        0    0.0000
    179 H         142.1344  140.0613    1.7765 H        29        0    0.0000
    180 H         142.8207  138.4638    1.5025 H        29        0    0.0000
    181 C         141.4366  139.1068   -0.0596 C.3      30        0    0.0000
    182 C         142.6085  138.9301   -1.0314 C.3      30        0    0.0000
    183 H         140.6841  138.3272   -0.2321 H        30        0    0.0000
    184 H         140.9406  140.0686   -0.2394 H        30        0    0.0000
    185 H         143.2700  139.8041   -0.9859 H        30        0    0.0000
    186 H         143.2124  138.0623   -0.7386 H        30        0    0.0000
    187 C         142.1291  138.7359   -2.5113 C.3      31        0    0.0000
    188 C         142.7437  139.7696   -3.4614 C.3      31        0    0.0000
    189 H         142.3916  137.7220   -2.8378 H        31        0    0.0000
    190 H         141.0344  138.8026   -2.5400 H        31        0    0.0000
    191 H         142.7983  140.7481   -2.9682 H        31        0    0.0000
    192 H         143.7731  139.4852   -3.7118 H        31        0    0.0000
    193 C         141.9232  139.9181   -4.7889 C.3      32        0    0.0000
    194 C         142.7007  139.4177   -6.0112 C.3      32        0    0.0000
    195 H         140.9830  139.3620   -4.6876 H        32        0    0.0000
    196 H         141.6526  140.9730   -4.9212 H        32        0    0.0000
    197 H         143.3327  140.2211   -6.4098 H        32        0    0.0000
    198 H         143.3742  138.6019   -5.7206 H        32        0    0.0000
    199 C         141.7524  138.9084   -7.1509 C.3      33        0    0.0000
    200 C         142.3085  139.2091   -8.5471 C.3      33        0    0.0000
    201 H         141.6029  137.8283   -7.0301 H        33        0    0.0000
    202 H         140.7686  139.3782   -7.0286 H        33        0    0.0000
    203 H         142.6276  140.2570   -8.6072 H        33        0    0.0000
    204 H         143.1991  138.5972   -8.7370 H        33        0    0.0000
    205 C         141.2570  138.9354   -9.6770 C.3      34        0    0.0000
    206 C         141.8489  139.1207  -11.0786 C.3      34        0    0.0000
    207 H         140.8730  137.9141   -9.5629 H        34        0    0.0000
    208 H         140.4036  139.6104   -9.5369 H        34        0    0.0000
    209 H         142.2029  140.1515  -11.2041 H        34        0    0.0000
    210 H         142.7226  138.4697  -11.2070 H        34        0    0.0000
    211 C         140.8106  138.8018  -12.2089 C.3      35        0    0.0000
    212 C         141.4011  138.9919  -13.6104 C.3      35        0    0.0000
    213 H         140.4594  137.7699  -12.0855 H        35        0    0.0000
    214 H         139.9354  139.4503  -12.0783 H        35        0    0.0000
    215 H         141.7512  140.0242  -13.7343 H        35        0    0.0000
    216 H         142.2771  138.3445  -13.7406 H        35        0    0.0000
    217 C         140.3633  138.6713  -14.7408 C.3      36        0    0.0000
    218 C         140.9519  138.8675  -16.1423 C.3      36        0    0.0000
    219 H         140.0167  137.6375  -14.6197 H        36        0    0.0000
    220 H         139.4854  139.3155  -14.6079 H        36        0    0.0000
    221 H         141.2907  139.9035  -16.2663 H        36        0    0.0000
    222 H         141.8349  138.2295  -16.2722 H        36        0    0.0000
    223 C         139.9178  138.5353  -17.2727 C.3      37        0    0.0000
    224 C         140.5085  138.7246  -18.6742 C.3      37        0    0.0000
    225 H         139.5750  137.5010  -17.1456 H        37        0    0.0000
    226 H         139.0370  139.1770  -17.1459 H        37        0    0.0000
    227 H         140.8502  139.7593  -18.8019 H        37        0    0.0000
    228 H         141.3901  138.0839  -18.8006 H        37        0    0.0000
    229 C         139.4751  138.3907  -19.8047 C.3      38        0    0.0000
    230 C         140.0657  138.5806  -21.2062 C.3      38        0    0.0000
    231 H         139.1338  137.3559  -19.6773 H        38        0    0.0000
    232 H         138.5933  139.0311  -19.6781 H        38        0    0.0000
    233 H         140.4098  139.6146  -21.3324 H        38        0    0.0000
    234 H         140.9455  137.9380  -21.3339 H        38        0    0.0000
    235 C         139.0308  138.2510  -22.3366 C.3      39        0    0.0000
    236 C         139.6219  138.4394  -23.7381 C.3      39        0    0.0000
    237 H         138.6858  137.2174  -22.2097 H        39        0    0.0000
    238 H         138.1515  138.8945  -22.2096 H        39        0    0.0000
    239 H         139.9640  139.4738  -23.8662 H        39        0    0.0000
    240 H         140.5033  137.7983  -23.8639 H        39        0    0.0000
    241 C         138.5885  138.1053  -24.8686 C.3      40        0    0.0000
    242 C         139.1770  138.3017  -26.2701 C.3      40        0    0.0000
    243 H         138.2511  137.0688  -24.7442 H        40        0    0.0000
    244 H         137.7046  138.7420  -24.7391 H        40        0    0.0000
    245 H         139.3078  139.3712  -26.4766 H        40        0    0.0000
    246 H         140.1732  137.8458  -26.3271 H        40        0    0.0000
    247 C         138.2713  137.6783  -27.3875 C.3      41        0    0.0000
    248 C         138.8414  137.9064  -28.7917 C.3      41        0    0.0000
    249 H         138.1624  136.6037  -27.1957 H        41        0    0.0000
    250 H         137.2675  138.1149  -27.3135 H        41        0    0.0000
    251 H         139.7417  137.2963  -28.9359 H        41        0    0.0000
    252 H         138.1168  137.5826  -29.5491 H        41        0    0.0000
    253 C         139.2034  139.4099  -29.0490 C.3      42        0    0.0000
    254 C         139.8531  139.6244  -30.4204 C.3      42        0    0.0000
    255 H         138.2903  140.0124  -28.9669 H        42        0    0.0000
    256 H         139.8789  139.7518  -28.2551 H        42        0    0.0000
    257 H         139.3219  140.4118  -30.9693 H        42        0    0.0000
    258 H         140.8872  139.9692  -30.2969 H        42        0    0.0000
    259 C         139.8561  138.3182  -31.2873 C.3      43        0    0.0000
    260 C         140.0693  138.6101  -32.7767 C.3      43        0    0.0000
    261 H         140.6445  137.6507  -30.9181 H        43        0    0.0000
    262 H         138.9041  137.7935  -31.1393 H        43        0    0.0000
    263 H         139.7670  139.6396  -33.0053 H        43        0    0.0000
    264 H         141.1346  138.5317  -33.0266 H        43        0    0.0000
    265 C         139.2612  137.6303  -33.6957 C.3      44        0    0.0000
    266 C         139.4809  137.9169  -35.1852 C.3      44        0    0.0000
    267 H         139.5592  136.6005  -33.4629 H        44        0    0.0000
    268 H         138.1953  137.7131  -33.4498 H        44        0    0.0000
    269 H         139.0335  137.1196  -35.7916 H        44        0    0.0000
    270 H         138.9753  138.8487  -35.4675 H        44        0    0.0000
    271 C         141.0009  138.0363  -35.5494 C.3      45        0    0.0000
    272 C         141.2180  138.4228  -37.0166 C.3      45        0    0.0000
    273 H         141.4647  138.7817  -34.8915 H        45        0    0.0000
    274 H         141.4919  137.0788  -35.3361 H        45        0    0.0000
    275 H         141.6740  139.4187  -37.0797 H        45        0    0.0000
    276 H         141.9196  137.7246  -37.4897 H        45        0    0.0000
    277 C         139.8805  138.4268  -37.8341 C.3      46        0    0.0000
    278 C         140.1194  138.6009  -39.3380 C.3      46        0    0.0000
    279 H         139.3473  137.4870  -37.6443 H        46        0    0.0000
    280 H         139.2392  139.2341  -37.4591 H        46        0    0.0000
    281 H         140.3161  139.6554  -39.5680 H        46        0    0.0000
    282 H         141.0109  138.0399  -39.6447 H        46        0    0.0000
    283 C         138.8984  138.1164  -40.1935 C.3      47        0    0.0000
    284 C         139.1422  138.2794  -41.6979 C.3      47        0    0.0000
    285 H         138.6961  137.0644  -39.9570 H        47        0    0.0000
    286 H         138.0088  138.6836  -39.8930 H        47        0    0.0000
    287 H         139.8678  137.5331  -42.0444 H        47        0    0.0000
    288 H         138.2130  138.0960  -42.2516 H        47        0    0.0000
    289 C         139.6738  139.7084  -42.0622 C.3      48        0    0.0000
    290 C         140.4310  139.7242  -43.3947 C.3      48        0    0.0000
    291 H         138.8246  140.4016  -42.1039 H        48        0    0.0000
    292 H         140.3274  140.0592  -41.2540 H        48        0    0.0000
    293 H         141.2803  139.0309  -43.3530 H        48        0    0.0000
    294 H         139.7774  139.3733  -44.2029 H        48        0    0.0000
    295 H         140.8007  140.7178  -43.6480 H        48        0    0.0000
    296 H         129.2798  122.4687  -40.4349 H         0        0    0.0000
@<TRIPOS>BOND
     1     1     2      1
     2     1     3      1
     3     1     4      1
     4     1   296      H
     5     2     5      1
     6     2     6      1
     7     2     7      1
     8     7     8      1
     9     7     9      1
    10     7    10      1
    11     8    11      1
    12     8    12      1
    13     8    13      1
    14    13    14      1
    15    13    15      1
    16    13    16      1
    17    14    17      1
    18    14    18      1
    19    14    19      1
    20    19    20      1
    21    19    21      1
    22    19    22      1
    23    20    23      1
    24    20    24      1
    25    20    25      1
    26    25    26      1
    27    25    27      1
    28    25    28      1
    29    26    29      1
    30    26    30      1
    31    26    31      1
    32    31    32      1
    33    31    33      1
    34    31    34      1
    35    32    35      1
    36    32    36      1
    37    32    37      1
    38    37    38      1
    39    37    39      1
    40    37    40      1
    41    38    41      1
    42    38    42      1
    43    38    43      1
    44    43    44      1
    45    43    45      1
    46    43    46      1
    47    44    47      1
    48    44    48      1
    49    44    49      1
    50    49    50      1
    51    49    51      1
    52    49    52      1
    53    50    53      1
    54    50    54      1
    55    50    55      1
    56    55    56      1
    57    55    57      1
    58    55    58      1
    59    56    59      1
    60    56    60      1
    61    56    61      1
    62    61    62      1
    63    61    63      1
    64    61    64      1
    65    62    65      1
    66    62    66      1
    67    62    67      1
    68    67    68      1
    69    67    69      1
    70    67    70      1
    71    68    71      1
    72    68    72      1
    73    68    73      1
    74    73    74      1
    75    73    75      1
    76    73    76      1
    77    74    77      1
    78    74    78      1
    79    74    79      1
    80    79    80      1
    81    79    81      1
    82    79    82      1
    83    80    83      1
    84    80    84      1
    85    80    85      1
    86    85    86      1
    87    85    87      1
    88    85    88      1
    89    86    89      1
    90    86    90      1
    91    86    91      1
    92    91    92      1
    93    91    93      1
    94    91    94      1
    95    92    95      1
    96    92    96      1
    97    92    97      1
    98    97    98      1
    99    97    99      1
   100    97   100      1
   101    98   101      1
   102    98   102      1
   103    98   103      1
   104   103   104      1
   105   103   105      1
   106   103   106      1
   107   104   107      1
   108   104   108      1
   109   104   109      1
   110   109   110      1
   111   109   111      1
   112   109   112      1
   113   110   113      1
   114   110   114      1
   115   110   115      1
   116   115   116      1
   117   115   117      1
   118   115   118      1
   119   116   119      1
   120   116   120      1
   121   116   121      1
   122   121   122      1
   123   121   123      1
   124   121   124      1
   125   122   125      1
   126   122   126      1
   127   122   127      1
   128   127   128      1
   129   127   129      1
   130   127   130      1
   131   128   131      1
   132   128   132      1
   133   128   133      1
   134   133   134      1
   135   133   135      1
   136   133   136      1
   137   134   137      1
   138   134   138      1
   139   134   139      1
   140   139   140      1
   141   139   141      1
   142   139   142      1
   143   140   143      1
   144   140   144      1
   145   140   145      1
   146   145   146      1
   147   145   147      1
   148   145   148      1
   149   146   149      1
   150   146   150      1
   151   146   151      1
   152   151   152      1
   153   151   153      1
   154   151   154      1
   155   152   155      1
   156   152   156      1
   157   152   157      1
   158   157   158      1
   159   157   159      1
   160   157   160      1
   161   158   161      1
   162   158   162      1
   163   158   163      1
   164   163   164      1
   165   163   165      1
   166   163   166      1
   167   164   167      1
   168   164   168      1
   169   164   169      1
   170   169   170      1
   171   169   171      1
   172   169   172      1
   173   170   173      1
   174   170   174      1
   175   170   175      1
   176   175   176      1
   177   175   177      1
   178   175   178      1
   179   176   179      1
   180   176   180      1
   181   176   181      1
   182   181   182      1
   183   181   183      1
   184   181   184      1
   185   182   185      1
   186   182   186      1
   187   182   187      1
   188   187   188      1
   189   187   189      1
   190   187   190      1
   191   188   191      1
   192   188   192      1
   193   188   193      1
   194   193   194      1
   195   193   195      1
   196   193   196      1
   197   194   197      1
   198   194   198      1
   199   194   199      1
   200   199   200      1
   201   199   201      1
   202   199   202      1
   203   200   203      1
   204   200   204      1
   205   200   205      1
   206   205   206      1
   207   205   207      1
   208   205   208      1
   209   206   209      1
   210   206   210      1
   211   206   211      1
   212   211   212      1
   213   211   213      1
   214   211   214      1
   215   212   215      1
   216   212   216      1
   217   212   217      1
   218   217   218      1
   219   217   219      1
   220   217   220      1
   221   218   221      1
   222   218   222      1
   223   218   223      1
   224   223   224      1
   225   223   225      1
   226   223   226      1
   227   224   227      1
   228   224   228      1
   229   224   229      1
   230   229   230      1
   231   229   231      1
   232   229   232      1
   233   230   233      1
   234   230   234      1
   235   230   235      1
   236   235   236      1
   237   235   237      1
   238   235   238      1
   239   236   239      1
   240   236   240      1
   241   236   241      1
   242   241   242      1
   243   241   243      1
   244   241   244      1
   245   242   245      1
   246   242   246      1
   247   242   247      1
   248   247   248      1
   249   247   249      1
   250   247   250      1
   251   248   251      1
   252   248   252      1
   253   248   253      1
   254   253   254      1
   255   253   255      1
   256   253   256      1
   257   254   257      1
   258   254   258      1
   259   254   259      1
   260   259   260      1
   261   259   261      1
   262   259   262      1
   263   260   263      1
   264   260   264      1
   265   260   265      1
   266   265   266      1
   267   265   267      1
   268   265   268      1
   269   266   269      1
   270   266   270      1
   271   266   271      1
   272   271   272      1
   273   271   273      1
   274   271   274      1
   275   272   275      1
   276   272   276      1
   277   272   277      1
   278   277   278      1
   279   277   279      1
   280   277   280      1
   281   278   281      1
   282   278   282      1
   283   278   283      1
   284   283   284      1
   285   283   285      1
   286   283   286      1
   287   284   287      1
   288   284   288      1
   289   284   289      1
   290   289   290      1
   291   289   291      1
   292   289   292      1
   293   290   293      1
   294   290   294      1
   295   290   295      H
