###
### Created by PolyChef-cpp17 on Thu Feb 27 19:40:29 2025
###

@<TRIPOS>MOLECULE
NO_INFO
320 319 1 0 0
SMALL
USER_CHARGES


@<TRIPOS>ATOM
      1 C         159.2798  105.1487  120.6551 C.3       0        0    0.0000
      2 C         158.4513  103.9975  120.0742 C.3       0        0    0.0000
      3 H         158.8875  106.1102  120.3015 H         0        0    0.0000
      4 H         160.3161  105.0821  120.3014 H         0        0    0.0000
      5 H         158.4072  103.1673  120.7900 H         0        0    0.0000
      6 H         157.4176  104.3248  119.9073 H         0        0    0.0000
      7 C         159.0381  103.4671  118.7207 C.3       1        0    0.0000
      8 C         159.6358  104.5907  117.8668 C.3       1        0    0.0000
      9 H         159.8039  102.7125  118.9389 H         1        0    0.0000
     10 H         158.2414  102.9562  118.1660 H         1        0    0.0000
     11 H         158.9450  105.4421  117.8284 H         1        0    0.0000
     12 H         160.5631  104.9579  118.3238 H         1        0    0.0000
     13 C         159.9444  104.1240  116.4024 C.3       2        0    0.0000
     14 C         159.8871  105.2817  115.3996 C.3       2        0    0.0000
     15 H         160.9371  103.6573  116.3818 H         2        0    0.0000
     16 H         159.2245  103.3458  116.1202 H         2        0    0.0000
     17 H         158.9669  105.8607  115.5458 H         2        0    0.0000
     18 H         160.7234  105.9704  115.5719 H         2        0    0.0000
     19 C         159.9403  104.7839  113.9140 C.3       3        0    0.0000
     20 C         159.8221  105.9365  112.9107 C.3       3        0    0.0000
     21 H         160.8814  104.2427  113.7559 H         3        0    0.0000
     22 H         159.1305  104.0613  113.7540 H         3        0    0.0000
     23 H         158.8881  106.4870  113.0786 H         3        0    0.0000
     24 H         160.6405  106.6514  113.0609 H         3        0    0.0000
     25 C         159.8540  105.4367  111.4252 C.3       4        0    0.0000
     26 C         160.0273  106.5880  110.4286 C.3       4        0    0.0000
     27 H         160.6726  104.7151  111.3124 H         4        0    0.0000
     28 H         158.9242  104.8937  111.2148 H         4        0    0.0000
     29 H         159.1874  107.2888  110.5135 H         4        0    0.0000
     30 H         160.9361  107.1556  110.6638 H         4        0    0.0000
     31 C         160.1162  106.0832  108.9471 C.3       5        0    0.0000
     32 C         159.1605  106.8392  108.0175 C.3       5        0    0.0000
     33 H         161.1496  106.1958  108.5966 H         5        0    0.0000
     34 H         159.8913  105.0096  108.9253 H         5        0    0.0000
     35 H         158.1926  106.9866  108.5122 H         5        0    0.0000
     36 H         159.5587  107.8381  107.8004 H         5        0    0.0000
     37 C         158.9264  106.0835  106.6641 C.3       6        0    0.0000
     38 C         159.4273  106.8847  105.4573 C.3       6        0    0.0000
     39 H         159.4353  105.1127  106.7086 H         6        0    0.0000
     40 H         157.8550  105.8730  106.5574 H         6        0    0.0000
     41 H         158.6461  107.5733  105.1125 H         6        0    0.0000
     42 H         160.2866  107.5024  105.7463 H         6        0    0.0000
     43 C         159.8485  105.9599  104.2637 C.3       7        0    0.0000
     44 C         159.3851  106.5107  102.9106 C.3       7        0    0.0000
     45 H         160.9398  105.8485  104.2706 H         7        0    0.0000
     46 H         159.4287  104.9594  104.4262 H         7        0    0.0000
     47 H         158.3304  106.8073  102.9664 H         7        0    0.0000
     48 H         159.9534  107.4144  102.6577 H         7        0    0.0000
     49 C         159.5557  105.4663  101.7540 C.3       8        0    0.0000
     50 C         159.4426  106.1108  100.3680 C.3       8        0    0.0000
     51 H         160.5307  104.9752  101.8620 H         8        0    0.0000
     52 H         158.7948  104.6844  101.8685 H         8        0    0.0000
     53 H         158.4418  106.5394  100.2330 H         8        0    0.0000
     54 H         160.1551  106.9403  100.2796 H         8        0    0.0000
     55 C         159.7138  105.0866   99.2126 C.3       9        0    0.0000
     56 C         159.5501  105.7185   97.8259 C.3       9        0    0.0000
     57 H         160.7288  104.6861   99.3261 H         9        0    0.0000
     58 H         159.0264  104.2388   99.3232 H         9        0    0.0000
     59 H         158.5380  106.1273   97.7159 H         9        0    0.0000
     60 H         160.2441  106.5605   97.7120 H         9        0    0.0000
     61 C         159.8084  104.6910   96.6706 C.3      10        0    0.0000
     62 C         159.6399  105.3216   95.2839 C.3      10        0    0.0000
     63 H         160.8218  104.2849   96.7785 H        10        0    0.0000
     64 H         159.1169  103.8472   96.7866 H        10        0    0.0000
     65 H         158.6248  105.7229   95.1740 H        10        0    0.0000
     66 H         160.3276  106.1687   95.1698 H        10        0    0.0000
     67 C         159.9056  104.2960   94.1285 C.3      11        0    0.0000
     68 C         159.7374  104.9267   92.7418 C.3      11        0    0.0000
     69 H         160.9206  103.8945   94.2385 H        11        0    0.0000
     70 H         159.2178  103.4490   94.2424 H        11        0    0.0000
     71 H         158.7220  105.3269   92.6312 H        11        0    0.0000
     72 H         160.4242  105.7747   92.6284 H        11        0    0.0000
     73 C         160.0052  103.9016   91.5864 C.3      12        0    0.0000
     74 C         159.8435  104.5341   90.1997 C.3      12        0    0.0000
     75 H         161.0189  103.4978   91.6998 H        12        0    0.0000
     76 H         159.3150  103.0560   91.6970 H        12        0    0.0000
     77 H         158.8315  104.9426   90.0882 H        12        0    0.0000
     78 H         160.5374  105.3764   90.0872 H        12        0    0.0000
     79 C         160.1040  103.5071   89.0443 C.3      13        0    0.0000
     80 C         159.9448  104.1402   87.6576 C.3      13        0    0.0000
     81 H         161.1154  103.0973   89.1568 H        13        0    0.0000
     82 H         159.4090  102.6657   89.1557 H        13        0    0.0000
     83 H         158.9301  104.5407   87.5412 H        13        0    0.0000
     84 H         160.6325  104.9882   87.5500 H        13        0    0.0000
     85 C         160.2197  103.1170   86.5023 C.3      14        0    0.0000
     86 C         160.0653  103.7513   85.1156 C.3      14        0    0.0000
     87 H         161.2330  102.7137   86.6207 H        14        0    0.0000
     88 H         159.5296  102.2707   86.6077 H        14        0    0.0000
     89 H         159.0233  104.0545   84.9545 H        14        0    0.0000
     90 H         160.6724  104.6627   85.0492 H        14        0    0.0000
     91 C         160.4913  102.7755   83.9651 C.3      15        0    0.0000
     92 C         160.3353  103.4093   82.5783 C.3      15        0    0.0000
     93 H         161.5337  102.4734   84.1255 H        15        0    0.0000
     94 H         159.8851  101.8636   84.0323 H        15        0    0.0000
     95 H         159.6371  104.2540   82.6272 H        15        0    0.0000
     96 H         161.2969  103.8145   82.2396 H        15        0    0.0000
     97 C         159.8151  102.3847   81.5120 C.3      16        0    0.0000
     98 C         159.5606  103.0418   80.1509 C.3      16        0    0.0000
     99 H         160.5510  101.5778   81.4084 H        16        0    0.0000
    100 H         158.8923  101.9235   81.8855 H        16        0    0.0000
    101 H         160.1172  103.9843   80.0783 H        16        0    0.0000
    102 H         159.9303  102.3947   79.3458 H        16        0    0.0000
    103 C         158.0397  103.3331   79.9069 C.3      17        0    0.0000
    104 C         157.7498  103.7290   78.4549 C.3      17        0    0.0000
    105 H         157.4612  102.4407   80.1761 H        17        0    0.0000
    106 H         157.7195  104.1329   80.5860 H        17        0    0.0000
    107 H         157.9727  104.7925   78.3034 H        17        0    0.0000
    108 H         158.4043  103.1700   77.7747 H        17        0    0.0000
    109 C         156.2581  103.4631   78.0531 C.3      18        0    0.0000
    110 C         155.9586  103.8946   76.6133 C.3      18        0    0.0000
    111 H         156.0433  102.3946   78.1780 H        18        0    0.0000
    112 H         155.6030  103.9997   78.7506 H        18        0    0.0000
    113 H         156.5735  103.3171   75.9119 H        18        0    0.0000
    114 H         154.9118  103.6787   76.3659 H        18        0    0.0000
    115 C         156.2278  105.4216   76.3825 C.3      19        0    0.0000
    116 C         155.9277  105.8532   74.9428 C.3      19        0    0.0000
    117 H         155.6131  105.9990   77.0841 H        19        0    0.0000
    118 H         157.2746  105.6374   76.6295 H        19        0    0.0000
    119 H         154.8442  105.8636   74.7713 H        19        0    0.0000
    120 H         156.2831  106.8775   74.7753 H        19        0    0.0000
    121 C         156.5972  104.9071   73.8872 C.3      20        0    0.0000
    122 C         156.2642  105.3149   72.4478 C.3      20        0    0.0000
    123 H         157.6835  104.9196   74.0399 H        20        0    0.0000
    124 H         156.2647  103.8783   74.0732 H        20        0    0.0000
    125 H         157.1884  105.4783   71.8797 H        20        0    0.0000
    126 H         155.7231  104.5050   71.9430 H        20        0    0.0000
    127 C         155.3956  106.6184   72.3855 C.3      21        0    0.0000
    128 C         155.3742  107.2357   70.9828 C.3      21        0    0.0000
    129 H         154.3744  106.3785   72.7065 H        21        0    0.0000
    130 H         155.7914  107.3420   73.1089 H        21        0    0.0000
    131 H         156.3854  107.2378   70.5573 H        21        0    0.0000
    132 H         154.7522  106.6281   70.3139 H        21        0    0.0000
    133 C         154.8253  108.7041   70.9882 C.3      22        0    0.0000
    134 C         154.5841  109.2392   69.5724 C.3      22        0    0.0000
    135 H         153.8922  108.7306   71.5645 H        22        0    0.0000
    136 H         155.5402  109.3469   71.5166 H        22        0    0.0000
    137 H         155.5313  109.2840   69.0208 H        22        0    0.0000
    138 H         153.9289  108.5556   69.0184 H        22        0    0.0000
    139 C         153.9354  110.6663   69.5792 C.3      23        0    0.0000
    140 C         153.8449  111.2699   68.1734 C.3      23        0    0.0000
    141 H         152.9351  110.5979   70.0244 H        23        0    0.0000
    142 H         154.5267  111.3204   70.2321 H        23        0    0.0000
    143 H         154.8356  111.2761   67.7021 H        23        0    0.0000
    144 H         153.1983  110.6509   67.5391 H        23        0    0.0000
    145 C         153.2843  112.7338   68.1902 C.3      24        0    0.0000
    146 C         153.3342  113.3909   66.8065 C.3      24        0    0.0000
    147 H         152.2515  112.7126   68.5596 H        24        0    0.0000
    148 H         153.8639  113.3261   68.9091 H        24        0    0.0000
    149 H         154.3634  113.6855   66.5669 H        24        0    0.0000
    150 H         153.0251  112.6722   66.0374 H        24        0    0.0000
    151 C         152.4124  114.6556   66.7158 C.3      25        0    0.0000
    152 C         153.2093  115.9371   66.4479 C.3      25        0    0.0000
    153 H         151.6739  114.4986   65.9199 H        25        0    0.0000
    154 H         151.8501  114.7513   67.6529 H        25        0    0.0000
    155 H         154.1874  115.6888   66.0177 H        25        0    0.0000
    156 H         152.6877  116.5566   65.7078 H        25        0    0.0000
    157 C         153.4296  116.7827   67.7494 C.3      26        0    0.0000
    158 C         152.9915  118.2411   67.5757 C.3      26        0    0.0000
    159 H         152.8719  116.3178   68.5718 H        26        0    0.0000
    160 H         154.4908  116.7389   68.0241 H        26        0    0.0000
    161 H         153.7264  118.9122   68.0373 H        26        0    0.0000
    162 H         152.9555  118.4987   66.5099 H        26        0    0.0000
    163 C         151.5852  118.5186   68.2103 C.3      27        0    0.0000
    164 C         151.6362  119.6173   69.2778 C.3      27        0    0.0000
    165 H         150.8869  118.8011   67.4128 H        27        0    0.0000
    166 H         151.2044  117.5871   68.6472 H        27        0    0.0000
    167 H         152.5339  120.2329   69.1413 H        27        0    0.0000
    168 H         150.7748  120.2878   69.1688 H        27        0    0.0000
    169 C         151.6407  119.0327   70.7323 C.3      28        0    0.0000
    170 C         150.4644  119.5479   71.5690 C.3      28        0    0.0000
    171 H         151.6093  117.9377   70.6734 H        28        0    0.0000
    172 H         152.5898  119.2951   71.2159 H        28        0    0.0000
    173 H         150.7851  120.3958   72.1868 H        28        0    0.0000
    174 H         149.6694  119.9202   70.9111 H        28        0    0.0000
    175 C         149.8690  118.4387   72.5032 C.3      29        0    0.0000
    176 C         148.4747  118.8047   73.0237 C.3      29        0    0.0000
    177 H         149.8271  117.4936   71.9477 H        29        0    0.0000
    178 H         150.5548  118.2795   73.3445 H        29        0    0.0000
    179 H         148.5017  119.7858   73.5138 H        29        0    0.0000
    180 H         147.7710  118.8900   72.1865 H        29        0    0.0000
    181 C         147.9238  117.7468   74.0410 C.3      30        0    0.0000
    182 C         146.8969  118.3491   75.0063 C.3      30        0    0.0000
    183 H         147.4726  116.9187   73.4804 H        30        0    0.0000
    184 H         148.7661  117.3247   74.6031 H        30        0    0.0000
    185 H         147.1247  119.4071   75.1858 H        30        0    0.0000
    186 H         145.8953  118.3138   74.5600 H        30        0    0.0000
    187 C         146.8636  117.5988   76.3823 C.3      31        0    0.0000
    188 C         146.2374  118.4495   77.4928 C.3      31        0    0.0000
    189 H         146.3016  116.6643   76.2621 H        31        0    0.0000
    190 H         147.8879  117.3173   76.6565 H        31        0    0.0000
    191 H         145.6212  119.2448   77.0552 H        31        0    0.0000
    192 H         145.5679  117.8338   78.1062 H        31        0    0.0000
    193 C         147.3180  119.1014   78.4228 C.3      32        0    0.0000
    194 C         146.7744  120.3172   79.1812 C.3      32        0    0.0000
    195 H         147.6767  118.3452   79.1320 H        32        0    0.0000
    196 H         148.1805  119.3942   77.8113 H        32        0    0.0000
    197 H         146.3110  121.0219   78.4797 H        32        0    0.0000
    198 H         145.9879  120.0044   79.8791 H        32        0    0.0000
    199 C         147.8937  121.0658   79.9840 C.3      33        0    0.0000
    200 C         147.5241  121.2524   81.4596 C.3      33        0    0.0000
    201 H         148.8290  120.4986   79.8993 H        33        0    0.0000
    202 H         148.0731  122.0411   79.5149 H        33        0    0.0000
    203 H         146.9329  122.1678   81.5865 H        33        0    0.0000
    204 H         146.8934  120.4208   81.7975 H        33        0    0.0000
    205 C         148.7883  121.3353   82.3828 C.3      34        0    0.0000
    206 C         148.4271  121.2602   83.8705 C.3      34        0    0.0000
    207 H         149.4722  120.5187   82.1201 H        34        0    0.0000
    208 H         149.3197  122.2715   82.1716 H        34        0    0.0000
    209 H         147.7900  122.1096   84.1462 H        34        0    0.0000
    210 H         147.8454  120.3519   84.0709 H        34        0    0.0000
    211 C         149.6962  121.2608   84.7907 C.3      35        0    0.0000
    212 C         149.3341  121.2297   86.2796 C.3      35        0    0.0000
    213 H         150.3178  120.3932   84.5365 H        35        0    0.0000
    214 H         150.2943  122.1530   84.5676 H        35        0    0.0000
    215 H         148.6878  122.0808   86.5274 H        35        0    0.0000
    216 H         148.7616  120.3222   86.5086 H        35        0    0.0000
    217 C         150.6020  121.2730   87.2005 C.3      36        0    0.0000
    218 C         150.2395  121.2505   88.6895 C.3      36        0    0.0000
    219 H         151.2453  120.4183   86.9570 H        36        0    0.0000
    220 H         151.1778  122.1772   86.9671 H        36        0    0.0000
    221 H         149.5692  122.0862   88.9261 H        36        0    0.0000
    222 H         149.6927  120.3303   88.9297 H        36        0    0.0000
    223 C         151.5049  121.3415   89.6104 C.3      37        0    0.0000
    224 C         151.1423  121.3205   91.0994 C.3      37        0    0.0000
    225 H         152.1747  120.5053   89.3745 H        37        0    0.0000
    226 H         152.0522  122.2612   89.3694 H        37        0    0.0000
    227 H         152.0503  121.2161   91.7062 H        37        0    0.0000
    228 H         150.6789  122.2723   91.3871 H        37        0    0.0000
    229 C         150.1596  120.1521   91.4552 C.3      38        0    0.0000
    230 C         149.6328  120.2531   92.8909 C.3      38        0    0.0000
    231 H         149.3230  120.1653   90.7457 H        38        0    0.0000
    232 H         150.6795  119.1967   91.3115 H        38        0    0.0000
    233 H         148.5781  120.5552   92.8842 H        38        0    0.0000
    234 H         149.6760  119.2707   93.3774 H        38        0    0.0000
    235 C         150.4470  121.2795   93.7517 C.3      39        0    0.0000
    236 C         150.0393  121.2511   95.2289 C.3      39        0    0.0000
    237 H         151.5162  121.0549   93.6521 H        39        0    0.0000
    238 H         150.2965  122.2848   93.3392 H        39        0    0.0000
    239 H         149.3133  122.0474   95.4342 H        39        0    0.0000
    240 H         149.5410  120.3023   95.4634 H        39        0    0.0000
    241 C         151.2672  121.4274   96.1875 C.3      40        0    0.0000
    242 C         150.8636  121.3693   97.6649 C.3      40        0    0.0000
    243 H         152.0029  120.6439   95.9674 H        40        0    0.0000
    244 H         151.7527  122.3862   95.9675 H        40        0    0.0000
    245 H         150.6212  120.3376   97.9484 H        40        0    0.0000
    246 H         151.7046  121.6804   98.2970 H        40        0    0.0000
    247 C         149.6296  122.2832   97.9801 C.3      41        0    0.0000
    248 C         149.1785  122.1669   99.4402 C.3      41        0    0.0000
    249 H         149.8916  123.3232   97.7491 H        41        0    0.0000
    250 H         148.8061  122.0093   97.3089 H        41        0    0.0000
    251 H         149.1263  123.1623   99.8983 H        41        0    0.0000
    252 H         148.1672  121.7442   99.4889 H        41        0    0.0000
    253 C         150.1426  121.2694  100.2902 C.3      42        0    0.0000
    254 C         149.8430  121.3542  101.7909 C.3      42        0    0.0000
    255 H         150.0539  120.2312   99.9469 H        42        0    0.0000
    256 H         151.1771  121.5784  100.0951 H        42        0    0.0000
    257 H         149.6200  122.3909  102.0720 H        42        0    0.0000
    258 H         148.9497  120.7639  102.0300 H        42        0    0.0000
    259 C         151.0379  120.8394  102.6653 C.3      43        0    0.0000
    260 C         150.7429  120.9354  104.1662 C.3      43        0    0.0000
    261 H         151.2550  119.7998  102.3904 H        43        0    0.0000
    262 H         151.9333  121.4238  102.4198 H        43        0    0.0000
    263 H         149.9985  120.1821  104.4523 H        43        0    0.0000
    264 H         151.6502  120.7165  104.7427 H        43        0    0.0000
    265 C         150.2122  122.3519  104.5780 C.3      44        0    0.0000
    266 C         149.8255  122.4193  106.0595 C.3      44        0    0.0000
    267 H         150.9861  123.0974  104.3569 H        44        0    0.0000
    268 H         149.3467  122.6011  103.9516 H        44        0    0.0000
    269 H         150.3172  123.2753  106.5381 H        44        0    0.0000
    270 H         148.7450  122.5804  106.1593 H        44        0    0.0000
    271 C         150.2155  121.1140  106.8352 C.3      45        0    0.0000
    272 C         149.9990  121.2498  108.3464 C.3      45        0    0.0000
    273 H         149.6213  120.2791  106.4436 H        45        0    0.0000
    274 H         151.2662  120.8785  106.6254 H        45        0    0.0000
    275 H         149.9771  122.3094  108.6296 H        45        0    0.0000
    276 H         149.0253  120.8288  108.6262 H        45        0    0.0000
    277 C         151.1180  120.5286  109.1741 C.3      46        0    0.0000
    278 C         150.9010  120.6637  110.6853 C.3      46        0    0.0000
    279 H         151.1402  119.4690  108.8905 H        46        0    0.0000
    280 H         152.0916  120.9499  108.8947 H        46        0    0.0000
    281 H         150.0549  120.0409  111.0010 H        46        0    0.0000
    282 H         151.7819  120.2962  111.2261 H        46        0    0.0000
    283 C         150.6258  122.1458  111.1157 C.3      47        0    0.0000
    284 C         150.1633  122.2510  112.5732 C.3      47        0    0.0000
    285 H         151.5408  122.7326  110.9682 H        47        0    0.0000
    286 H         149.8668  122.5726  110.4485 H        47        0    0.0000
    287 H         150.6698  123.0883  113.0690 H        47        0    0.0000
    288 H         149.0881  122.4654  112.6121 H        47        0    0.0000
    289 C         150.4464  120.9386  113.3825 C.3      48        0    0.0000
    290 C         150.0900  121.0828  114.8661 C.3      48        0    0.0000
    291 H         149.8726  120.1171  112.9359 H        48        0    0.0000
    292 H         151.5065  120.6779  113.2739 H        48        0    0.0000
    293 H         149.3891  121.9152  115.0054 H        48        0    0.0000
    294 H         149.5795  120.1786  115.2200 H        48        0    0.0000
    295 C         151.3540  121.3318  115.7593 C.3      49        0    0.0000
    296 C         151.0089  121.3877  117.2515 C.3      49        0    0.0000
    297 H         152.0826  120.5335  115.5713 H        49        0    0.0000
    298 H         151.8280  122.2708  115.4474 H        49        0    0.0000
    299 H         151.9274  121.4546  117.8478 H        49        0    0.0000
    300 H         150.4256  122.2909  117.4692 H        49        0    0.0000
    301 C         150.1927  120.1340  117.7199 C.3      50        0    0.0000
    302 C         149.6578  120.2894  119.1478 C.3      50        0    0.0000
    303 H         149.3616  119.9723  117.0223 H        50        0    0.0000
    304 H         150.8364  119.2481  117.6537 H        50        0    0.0000
    305 H         148.5736  120.4557  119.1272 H        50        0    0.0000
    306 H         149.8240  119.3649  119.7145 H        50        0    0.0000
    307 C         150.3370  121.4787  119.9105 C.3      51        0    0.0000
    308 C         149.7232  121.7061  121.2964 C.3      51        0    0.0000
    309 H         151.4103  121.2719  120.0038 H        51        0    0.0000
    310 H         150.2429  122.3877  119.3037 H        51        0    0.0000
    311 H         149.9618  120.8629  121.9564 H        51        0    0.0000
    312 H         150.1585  122.6008  121.7584 H        51        0    0.0000
    313 C         148.1659  121.8755  121.2359 C.3      52        0    0.0000
    314 C         147.5301  121.9036  122.6301 C.3      52        0    0.0000
    315 H         147.9317  122.8018  120.6968 H        52        0    0.0000
    316 H         147.7433  121.0524  120.6463 H        52        0    0.0000
    317 H         147.7643  120.9773  123.1692 H        52        0    0.0000
    318 H         147.9526  122.7266  123.2197 H        52        0    0.0000
    319 H         146.4473  122.0214  122.5880 H        52        0    0.0000
    320 H         159.2798  105.1487  121.7450 H         0        0    0.0000
@<TRIPOS>BOND
     1     1     2      1
     2     1     3      1
     3     1     4      1
     4     1   320      H
     5     2     5      1
     6     2     6      1
     7     2     7      1
     8     7     8      1
     9     7     9      1
    10     7    10      1
    11     8    11      1
    12     8    12      1
    13     8    13      1
    14    13    14      1
    15    13    15      1
    16    13    16      1
    17    14    17      1
    18    14    18      1
    19    14    19      1
    20    19    20      1
    21    19    21      1
    22    19    22      1
    23    20    23      1
    24    20    24      1
    25    20    25      1
    26    25    26      1
    27    25    27      1
    28    25    28      1
    29    26    29      1
    30    26    30      1
    31    26    31      1
    32    31    32      1
    33    31    33      1
    34    31    34      1
    35    32    35      1
    36    32    36      1
    37    32    37      1
    38    37    38      1
    39    37    39      1
    40    37    40      1
    41    38    41      1
    42    38    42      1
    43    38    43      1
    44    43    44      1
    45    43    45      1
    46    43    46      1
    47    44    47      1
    48    44    48      1
    49    44    49      1
    50    49    50      1
    51    49    51      1
    52    49    52      1
    53    50    53      1
    54    50    54      1
    55    50    55      1
    56    55    56      1
    57    55    57      1
    58    55    58      1
    59    56    59      1
    60    56    60      1
    61    56    61      1
    62    61    62      1
    63    61    63      1
    64    61    64      1
    65    62    65      1
    66    62    66      1
    67    62    67      1
    68    67    68      1
    69    67    69      1
    70    67    70      1
    71    68    71      1
    72    68    72      1
    73    68    73      1
    74    73    74      1
    75    73    75      1
    76    73    76      1
    77    74    77      1
    78    74    78      1
    79    74    79      1
    80    79    80      1
    81    79    81      1
    82    79    82      1
    83    80    83      1
    84    80    84      1
    85    80    85      1
    86    85    86      1
    87    85    87      1
    88    85    88      1
    89    86    89      1
    90    86    90      1
    91    86    91      1
    92    91    92      1
    93    91    93      1
    94    91    94      1
    95    92    95      1
    96    92    96      1
    97    92    97      1
    98    97    98      1
    99    97    99      1
   100    97   100      1
   101    98   101      1
   102    98   102      1
   103    98   103      1
   104   103   104      1
   105   103   105      1
   106   103   106      1
   107   104   107      1
   108   104   108      1
   109   104   109      1
   110   109   110      1
   111   109   111      1
   112   109   112      1
   113   110   113      1
   114   110   114      1
   115   110   115      1
   116   115   116      1
   117   115   117      1
   118   115   118      1
   119   116   119      1
   120   116   120      1
   121   116   121      1
   122   121   122      1
   123   121   123      1
   124   121   124      1
   125   122   125      1
   126   122   126      1
   127   122   127      1
   128   127   128      1
   129   127   129      1
   130   127   130      1
   131   128   131      1
   132   128   132      1
   133   128   133      1
   134   133   134      1
   135   133   135      1
   136   133   136      1
   137   134   137      1
   138   134   138      1
   139   134   139      1
   140   139   140      1
   141   139   141      1
   142   139   142      1
   143   140   143      1
   144   140   144      1
   145   140   145      1
   146   145   146      1
   147   145   147      1
   148   145   148      1
   149   146   149      1
   150   146   150      1
   151   146   151      1
   152   151   152      1
   153   151   153      1
   154   151   154      1
   155   152   155      1
   156   152   156      1
   157   152   157      1
   158   157   158      1
   159   157   159      1
   160   157   160      1
   161   158   161      1
   162   158   162      1
   163   158   163      1
   164   163   164      1
   165   163   165      1
   166   163   166      1
   167   164   167      1
   168   164   168      1
   169   164   169      1
   170   169   170      1
   171   169   171      1
   172   169   172      1
   173   170   173      1
   174   170   174      1
   175   170   175      1
   176   175   176      1
   177   175   177      1
   178   175   178      1
   179   176   179      1
   180   176   180      1
   181   176   181      1
   182   181   182      1
   183   181   183      1
   184   181   184      1
   185   182   185      1
   186   182   186      1
   187   182   187      1
   188   187   188      1
   189   187   189      1
   190   187   190      1
   191   188   191      1
   192   188   192      1
   193   188   193      1
   194   193   194      1
   195   193   195      1
   196   193   196      1
   197   194   197      1
   198   194   198      1
   199   194   199      1
   200   199   200      1
   201   199   201      1
   202   199   202      1
   203   200   203      1
   204   200   204      1
   205   200   205      1
   206   205   206      1
   207   205   207      1
   208   205   208      1
   209   206   209      1
   210   206   210      1
   211   206   211      1
   212   211   212      1
   213   211   213      1
   214   211   214      1
   215   212   215      1
   216   212   216      1
   217   212   217      1
   218   217   218      1
   219   217   219      1
   220   217   220      1
   221   218   221      1
   222   218   222      1
   223   218   223      1
   224   223   224      1
   225   223   225      1
   226   223   226      1
   227   224   227      1
   228   224   228      1
   229   224   229      1
   230   229   230      1
   231   229   231      1
   232   229   232      1
   233   230   233      1
   234   230   234      1
   235   230   235      1
   236   235   236      1
   237   235   237      1
   238   235   238      1
   239   236   239      1
   240   236   240      1
   241   236   241      1
   242   241   242      1
   243   241   243      1
   244   241   244      1
   245   242   245      1
   246   242   246      1
   247   242   247      1
   248   247   248      1
   249   247   249      1
   250   247   250      1
   251   248   251      1
   252   248   252      1
   253   248   253      1
   254   253   254      1
   255   253   255      1
   256   253   256      1
   257   254   257      1
   258   254   258      1
   259   254   259      1
   260   259   260      1
   261   259   261      1
   262   259   262      1
   263   260   263      1
   264   260   264      1
   265   260   265      1
   266   265   266      1
   267   265   267      1
   268   265   268      1
   269   266   269      1
   270   266   270      1
   271   266   271      1
   272   271   272      1
   273   271   273      1
   274   271   274      1
   275   272   275      1
   276   272   276      1
   277   272   277      1
   278   277   278      1
   279   277   279      1
   280   277   280      1
   281   278   281      1
   282   278   282      1
   283   278   283      1
   284   283   284      1
   285   283   285      1
   286   283   286      1
   287   284   287      1
   288   284   288      1
   289   284   289      1
   290   289   290      1
   291   289   291      1
   292   289   292      1
   293   290   293      1
   294   290   294      1
   295   290   295      1
   296   295   296      1
   297   295   297      1
   298   295   298      1
   299   296   299      1
   300   296   300      1
   301   296   301      1
   302   301   302      1
   303   301   303      1
   304   301   304      1
   305   302   305      1
   306   302   306      1
   307   302   307      1
   308   307   308      1
   309   307   309      1
   310   307   310      1
   311   308   311      1
   312   308   312      1
   313   308   313      1
   314   313   314      1
   315   313   315      1
   316   313   316      1
   317   314   317      1
   318   314   318      1
   319   314   319      H
