###
### Created by PolyChef-cpp17 on Thu Feb 27 19:40:30 2025
###

@<TRIPOS>MOLECULE
NO_INFO
140 139 1 0 0
SMALL
USER_CHARGES


@<TRIPOS>ATOM
      1 C         159.2798   70.5087  120.6551 C.3       0        0    0.0000
      2 C         158.4513   69.3575  120.0742 C.3       0        0    0.0000
      3 H         158.8875   71.4702  120.3015 H         0        0    0.0000
      4 H         160.3161   70.4421  120.3014 H         0        0    0.0000
      5 H         158.4076   68.5271  120.7898 H         0        0    0.0000
      6 H         157.4175   69.6847  119.9078 H         0        0    0.0000
      7 C         159.0377   68.8276  118.7204 C.3       1        0    0.0000
      8 C         159.6364   69.9513  117.8673 C.3       1        0    0.0000
      9 H         159.8029   68.0721  118.9381 H         1        0    0.0000
     10 H         158.2406   68.3177  118.1653 H         1        0    0.0000
     11 H         158.9461   70.8030  117.8290 H         1        0    0.0000
     12 H         160.5637   70.3177  118.3248 H         1        0    0.0000
     13 C         159.9454   69.4851  116.4028 C.3       2        0    0.0000
     14 C         159.8892   70.6433  115.4005 C.3       2        0    0.0000
     15 H         160.9378   69.0179  116.3824 H         2        0    0.0000
     16 H         159.2253   68.7074  116.1199 H         2        0    0.0000
     17 H         158.9701   71.2239  115.5478 H         2        0    0.0000
     18 H         160.7269   71.3304  115.5723 H         2        0    0.0000
     19 C         159.9400   70.1460  113.9147 C.3       3        0    0.0000
     20 C         159.8298   71.2999  112.9119 C.3       3        0    0.0000
     21 H         160.8775   69.5987  113.7568 H         3        0    0.0000
     22 H         159.1255   69.4288  113.7538 H         3        0    0.0000
     23 H         158.8977   71.8543  113.0773 H         3        0    0.0000
     24 H         160.6508   72.0112  113.0653 H         3        0    0.0000
     25 C         159.8644   70.8012  111.4262 C.3       4        0    0.0000
     26 C         159.9428   71.9600  110.4261 C.3       4        0    0.0000
     27 H         160.7256   70.1340  111.2971 H         4        0    0.0000
     28 H         158.9677   70.1988  111.2344 H         4        0    0.0000
     29 H         159.0685   72.6132  110.5380 H         4        0    0.0000
     30 H         160.8257   72.5770  110.6339 H         4        0    0.0000
     31 C         160.0134   71.4602  108.9420 C.3       5        0    0.0000
     32 C         158.9975   72.1708  108.0408 C.3       5        0    0.0000
     33 H         161.0301   71.6213  108.5627 H         5        0    0.0000
     34 H         159.8387   70.3773  108.9248 H         5        0    0.0000
     35 H         158.0337   72.2592  108.5573 H         5        0    0.0000
     36 H         159.3349   73.1924  107.8264 H         5        0    0.0000
     37 C         158.7767   71.4164  106.6845 C.3       6        0    0.0000
     38 C         159.1842   72.2648  105.4749 C.3       6        0    0.0000
     39 H         159.3533   70.4833  106.7009 H         6        0    0.0000
     40 H         157.7199   71.1324  106.6059 H         6        0    0.0000
     41 H         158.3383   72.8808  105.1454 H         6        0    0.0000
     42 H         159.9879   72.9571  105.7546 H         6        0    0.0000
     43 C         159.6697   71.3872  104.2701 C.3       7        0    0.0000
     44 C         159.1206   71.8866  102.9292 C.3       7        0    0.0000
     45 H         160.7666   71.3883  104.2513 H         7        0    0.0000
     46 H         159.3586   70.3491  104.4408 H         7        0    0.0000
     47 H         158.0426   72.0736  103.0104 H         7        0    0.0000
     48 H         159.5873   72.8435  102.6646 H         7        0    0.0000
     49 C         159.3700   70.8643  101.7673 C.3       8        0    0.0000
     50 C         159.2254   71.5098  100.3847 C.3       8        0    0.0000
     51 H         160.3747   70.4386  101.8805 H         8        0    0.0000
     52 H         158.6620   70.0326  101.8700 H         8        0    0.0000
     53 H         158.1974   71.8649  100.2410 H         8        0    0.0000
     54 H         159.8761   72.3900  100.3106 H         8        0    0.0000
     55 C         159.5839   70.5174   99.2253 C.3       9        0    0.0000
     56 C         159.3691   71.1394   97.8411 C.3       9        0    0.0000
     57 H         160.6291   70.2039   99.3387 H         9        0    0.0000
     58 H         158.9707   69.6139   99.3310 H         9        0    0.0000
     59 H         158.3280   71.4685   97.7341 H         9        0    0.0000
     60 H         159.9952   72.0332   97.7291 H         9        0    0.0000
     61 C         159.7045   70.1390   96.6817 C.3      10        0    0.0000
     62 C         159.4984   70.7639   95.2975 C.3      10        0    0.0000
     63 H         160.7435   69.8048   96.7926 H        10        0    0.0000
     64 H         159.0737   69.2480   96.7899 H        10        0    0.0000
     65 H         158.4585   71.0950   95.1853 H        10        0    0.0000
     66 H         160.1266   71.6570   95.1906 H        10        0    0.0000
     67 C         159.8386   69.7652   94.1381 C.3      11        0    0.0000
     68 C         159.6238   70.3871   92.7539 C.3      11        0    0.0000
     69 H         160.8805   69.4392   94.2465 H        11        0    0.0000
     70 H         159.2151   68.8693   94.2488 H        11        0    0.0000
     71 H         158.5821   70.7141   92.6460 H        11        0    0.0000
     72 H         160.2481   71.2823   92.6427 H        11        0    0.0000
     73 C         159.9624   69.3878   91.5945 C.3      12        0    0.0000
     74 C         159.7497   70.0105   90.2103 C.3      12        0    0.0000
     75 H         161.0035   69.0596   91.7034 H        12        0    0.0000
     76 H         159.3369   68.4933   91.7047 H        12        0    0.0000
     77 H         158.7071   70.3336   90.0993 H        12        0    0.0000
     78 H         160.3709   70.9083   90.1022 H        12        0    0.0000
     79 C         160.0959   69.0138   89.0509 C.3      13        0    0.0000
     80 C         159.8779   69.6347   87.6667 C.3      13        0    0.0000
     81 H         161.1397   68.6939   89.1595 H        13        0    0.0000
     82 H         159.4776   68.1144   89.1613 H        13        0    0.0000
     83 H         158.8346   69.9563   87.5587 H        13        0    0.0000
     84 H         160.4976   70.5331   87.5555 H        13        0    0.0000
     85 C         160.2217   68.6372   86.5073 C.3      14        0    0.0000
     86 C         160.0066   69.2590   85.1231 C.3      14        0    0.0000
     87 H         161.2643   68.3139   86.6165 H        14        0    0.0000
     88 H         159.6004   67.7397   86.6172 H        14        0    0.0000
     89 H         158.9646   69.5848   85.0149 H        14        0    0.0000
     90 H         160.6299   70.1550   85.0122 H        14        0    0.0000
     91 C         160.3467   68.2602   83.9637 C.3      15        0    0.0000
     92 C         160.1326   68.8824   82.5795 C.3      15        0    0.0000
     93 H         161.3885   67.9338   84.0723 H        15        0    0.0000
     94 H         159.7229   67.3645   84.0742 H        15        0    0.0000
     95 H         159.0887   69.2006   82.4675 H        15        0    0.0000
     96 H         160.7497   69.7830   82.4723 H        15        0    0.0000
     97 C         160.4846   67.8877   81.4201 C.3      16        0    0.0000
     98 C         160.2697   68.5096   80.0359 C.3      16        0    0.0000
     99 H         161.5287   67.5699   81.5317 H        16        0    0.0000
    100 H         159.8679   66.9868   81.5276 H        16        0    0.0000
    101 H         160.6752   67.8489   79.2596 H        16        0    0.0000
    102 H         159.1967   68.6131   79.8325 H        16        0    0.0000
    103 C         160.9469   69.9174   79.9054 C.3      17        0    0.0000
    104 C         160.6343   70.5902   78.5643 C.3      17        0    0.0000
    105 H         160.6060   70.5518   80.7330 H        17        0    0.0000
    106 H         162.0312   69.8005   80.0240 H        17        0    0.0000
    107 H         160.0115   71.4788   78.7254 H        17        0    0.0000
    108 H         161.5619   70.9370   78.0922 H        17        0    0.0000
    109 C         159.8933   69.6265   77.5745 C.3      18        0    0.0000
    110 C         159.7619   70.2253   76.1698 C.3      18        0    0.0000
    111 H         160.4410   68.6770   77.5290 H        18        0    0.0000
    112 H         158.9001   69.3981   77.9805 H        18        0    0.0000
    113 H         158.7597   70.0288   75.7694 H        18        0    0.0000
    114 H         159.8755   71.3156   76.2136 H        18        0    0.0000
    115 C         160.8260   69.6460   75.1751 C.3      19        0    0.0000
    116 C         160.6720   70.2182   73.7616 C.3      19        0    0.0000
    117 H         161.8287   69.8654   75.5625 H        19        0    0.0000
    118 H         160.7297   68.5534   75.1511 H        19        0    0.0000
    119 H         161.6151   70.6740   73.4355 H        19        0    0.0000
    120 H         160.4496   69.4121   73.0516 H        19        0    0.0000
    121 C         159.5350   71.2941   73.6770 C.3      20        0    0.0000
    122 C         159.2347   71.7094   72.2325 C.3      20        0    0.0000
    123 H         158.6303   70.8904   74.1481 H        20        0    0.0000
    124 H         159.8328   72.1704   74.2661 H        20        0    0.0000
    125 H         158.2724   71.2906   71.9130 H        20        0    0.0000
    126 H         159.1409   72.8004   72.1665 H        20        0    0.0000
    127 C         160.3476   71.2367   71.2348 C.3      21        0    0.0000
    128 C         159.9890   71.5436   69.7767 C.3      21        0    0.0000
    129 H         161.2924   71.7268   71.5010 H        21        0    0.0000
    130 H         160.5044   70.1587   71.3648 H        21        0    0.0000
    131 H         160.8268   72.0505   69.2819 H        21        0    0.0000
    132 H         159.8169   70.6099   69.2271 H        21        0    0.0000
    133 C         158.7114   72.4439   69.6559 C.3      22        0    0.0000
    134 C         158.2434   72.5965   68.2045 C.3      22        0    0.0000
    135 H         157.9111   72.0057   70.2651 H        22        0    0.0000
    136 H         158.9310   73.4290   70.0859 H        22        0    0.0000
    137 H         159.0437   73.0348   67.5953 H        22        0    0.0000
    138 H         158.0237   71.6114   67.7745 H        22        0    0.0000
    139 H         157.3550   73.2225   68.1205 H        22        0    0.0000
    140 H         159.2798   70.5087  121.7450 H         0        0    0.0000
@<TRIPOS>BOND
     1     1     2      1
     2     1     3      1
     3     1     4      1
     4     1   140      H
     5     2     5      1
     6     2     6      1
     7     2     7      1
     8     7     8      1
     9     7     9      1
    10     7    10      1
    11     8    11      1
    12     8    12      1
    13     8    13      1
    14    13    14      1
    15    13    15      1
    16    13    16      1
    17    14    17      1
    18    14    18      1
    19    14    19      1
    20    19    20      1
    21    19    21      1
    22    19    22      1
    23    20    23      1
    24    20    24      1
    25    20    25      1
    26    25    26      1
    27    25    27      1
    28    25    28      1
    29    26    29      1
    30    26    30      1
    31    26    31      1
    32    31    32      1
    33    31    33      1
    34    31    34      1
    35    32    35      1
    36    32    36      1
    37    32    37      1
    38    37    38      1
    39    37    39      1
    40    37    40      1
    41    38    41      1
    42    38    42      1
    43    38    43      1
    44    43    44      1
    45    43    45      1
    46    43    46      1
    47    44    47      1
    48    44    48      1
    49    44    49      1
    50    49    50      1
    51    49    51      1
    52    49    52      1
    53    50    53      1
    54    50    54      1
    55    50    55      1
    56    55    56      1
    57    55    57      1
    58    55    58      1
    59    56    59      1
    60    56    60      1
    61    56    61      1
    62    61    62      1
    63    61    63      1
    64    61    64      1
    65    62    65      1
    66    62    66      1
    67    62    67      1
    68    67    68      1
    69    67    69      1
    70    67    70      1
    71    68    71      1
    72    68    72      1
    73    68    73      1
    74    73    74      1
    75    73    75      1
    76    73    76      1
    77    74    77      1
    78    74    78      1
    79    74    79      1
    80    79    80      1
    81    79    81      1
    82    79    82      1
    83    80    83      1
    84    80    84      1
    85    80    85      1
    86    85    86      1
    87    85    87      1
    88    85    88      1
    89    86    89      1
    90    86    90      1
    91    86    91      1
    92    91    92      1
    93    91    93      1
    94    91    94      1
    95    92    95      1
    96    92    96      1
    97    92    97      1
    98    97    98      1
    99    97    99      1
   100    97   100      1
   101    98   101      1
   102    98   102      1
   103    98   103      1
   104   103   104      1
   105   103   105      1
   106   103   106      1
   107   104   107      1
   108   104   108      1
   109   104   109      1
   110   109   110      1
   111   109   111      1
   112   109   112      1
   113   110   113      1
   114   110   114      1
   115   110   115      1
   116   115   116      1
   117   115   117      1
   118   115   118      1
   119   116   119      1
   120   116   120      1
   121   116   121      1
   122   121   122      1
   123   121   123      1
   124   121   124      1
   125   122   125      1
   126   122   126      1
   127   122   127      1
   128   127   128      1
   129   127   129      1
   130   127   130      1
   131   128   131      1
   132   128   132      1
   133   128   133      1
   134   133   134      1
   135   133   135      1
   136   133   136      1
   137   134   137      1
   138   134   138      1
   139   134   139      H
