###
### Created by PolyChef-cpp17 on Thu Feb 27 19:40:30 2025
###

@<TRIPOS>MOLECULE
NO_INFO
158 157 1 0 0
SMALL
USER_CHARGES


@<TRIPOS>ATOM
      1 C         179.2798  105.1487  -39.3449 C.3       0        0    0.0000
      2 C         177.8706  104.9882  -38.7641 C.3       0        0    0.0000
      3 H         179.9271  104.3366  -38.9913 H         0        0    0.0000
      4 H         179.7280  106.0855  -38.9913 H         0        0    0.0000
      5 H         177.3727  105.9642  -38.7098 H         0        0    0.0000
      6 H         177.2607  104.3597  -39.4249 H         0        0    0.0000
      7 C         177.8872  104.3491  -37.3327 C.3       1        0    0.0000
      8 C         179.1645  104.6922  -36.5583 C.3       1        0    0.0000
      9 H         177.0066  104.6982  -36.7794 H         1        0    0.0000
     10 H         177.7871  103.2610  -37.4301 H         1        0    0.0000
     11 H         180.0453  104.5134  -37.1874 H         1        0    0.0000
     12 H         179.1730  105.7584  -36.3001 H         1        0    0.0000
     13 C         179.3049  103.8524  -35.2420 C.3       2        0    0.0000
     14 C         180.2065  104.5376  -34.2092 C.3       2        0    0.0000
     15 H         178.3060  103.6881  -34.8192 H         2        0    0.0000
     16 H         179.7065  102.8633  -35.4947 H         2        0    0.0000
     17 H         181.2601  104.4138  -34.4888 H         2        0    0.0000
     18 H         180.0092  105.6166  -34.1945 H         2        0    0.0000
     19 C         179.9964  103.9658  -32.7648 C.3       3        0    0.0000
     20 C         180.6194  104.8621  -31.6890 C.3       3        0    0.0000
     21 H         178.9206  103.8517  -32.5827 H         3        0    0.0000
     22 H         180.4326  102.9604  -32.7156 H         3        0    0.0000
     23 H         181.7085  104.9003  -31.8155 H         3        0    0.0000
     24 H         180.2534  105.8906  -31.7980 H         3        0    0.0000
     25 C         180.2964  104.3619  -30.2388 C.3       4        0    0.0000
     26 C         180.8967  105.2734  -29.1628 C.3       4        0    0.0000
     27 H         179.2074  104.3049  -30.1188 H         4        0    0.0000
     28 H         180.6800  103.3406  -30.1234 H         4        0    0.0000
     29 H         181.9861  105.3272  -29.2803 H         4        0    0.0000
     30 H         180.5163  106.2956  -29.2807 H         4        0    0.0000
     31 C         180.5688  104.7764  -27.7126 C.3       5        0    0.0000
     32 C         181.1598  105.6940  -26.6366 C.3       5        0    0.0000
     33 H         179.4795  104.7149  -27.5977 H         5        0    0.0000
     34 H         180.9564  103.7572  -27.5921 H         5        0    0.0000
     35 H         182.2491  105.7548  -26.7509 H         5        0    0.0000
     36 H         180.7729  106.7135  -26.7577 H         5        0    0.0000
     37 C         180.8308  105.1978  -25.1865 C.3       6        0    0.0000
     38 C         181.4575  106.0915  -24.1105 C.3       6        0    0.0000
     39 H         179.7413  105.1668  -25.0620 H         6        0    0.0000
     40 H         181.1900  104.1671  -25.0754 H         6        0    0.0000
     41 H         182.5468  106.1247  -24.2368 H         6        0    0.0000
     42 H         181.0961  107.1215  -24.2198 H         6        0    0.0000
     43 C         181.1319  105.5929  -22.6604 C.3       7        0    0.0000
     44 C         181.0801  106.7430  -21.6487 C.3       7        0    0.0000
     45 H         180.1719  105.0622  -22.6762 H         7        0    0.0000
     46 H         181.8916  104.8609  -22.3592 H         7        0    0.0000
     47 H         182.0718  107.2013  -21.5490 H         7        0    0.0000
     48 H         180.4043  107.5293  -22.0073 H         7        0    0.0000
     49 C         180.5981  106.2689  -20.2344 C.3       8        0    0.0000
     50 C         181.5687  106.6804  -19.1219 C.3       8        0    0.0000
     51 H         179.6035  106.6893  -20.0404 H         8        0    0.0000
     52 H         180.4819  105.1781  -20.2477 H         8        0    0.0000
     53 H         182.6028  106.6176  -19.4827 H         8        0    0.0000
     54 H         181.3963  107.7265  -18.8402 H         8        0    0.0000
     55 C         181.4237  105.7828  -17.8449 C.3       9        0    0.0000
     56 C         181.1237  106.6059  -16.5873 C.3       9        0    0.0000
     57 H         180.6239  105.0516  -18.0155 H         9        0    0.0000
     58 H         182.3496  105.2106  -17.7078 H         9        0    0.0000
     59 H         182.0349  107.1091  -16.2408 H         9        0    0.0000
     60 H         180.3968  107.3945  -16.8184 H         9        0    0.0000
     61 C         180.5587  105.7241  -15.4208 C.3      10        0    0.0000
     62 C         180.9784  106.2462  -14.0423 C.3      10        0    0.0000
     63 H         179.4646  105.6973  -15.4958 H        10        0    0.0000
     64 H         180.9091  104.6932  -15.5552 H        10        0    0.0000
     65 H         182.0617  106.4178  -14.0188 H        10        0    0.0000
     66 H         180.5017  107.2146  -13.8457 H        10        0    0.0000
     67 C         180.5990  105.2532  -12.8902 C.3      11        0    0.0000
     68 C         180.8510  105.8510  -11.5016 C.3      11        0    0.0000
     69 H         179.5424  104.9773  -12.9948 H        11        0    0.0000
     70 H         181.1793  104.3304  -13.0133 H        11        0    0.0000
     71 H         181.9149  106.0907  -11.3826 H        11        0    0.0000
     72 H         180.3015  106.7943  -11.3928 H        11        0    0.0000
     73 C         180.4200  104.8795  -10.3493 C.3      12        0    0.0000
     74 C         180.6833  105.4723   -8.9607 C.3      12        0    0.0000
     75 H         179.3539  104.6469  -10.4631 H        12        0    0.0000
     76 H         180.9627  103.9329  -10.4633 H        12        0    0.0000
     77 H         181.7492  105.7058   -8.8474 H        12        0    0.0000
     78 H         180.1396  106.4183   -8.8463 H        12        0    0.0000
     79 C         180.2538  104.5001   -7.8084 C.3      13        0    0.0000
     80 C         180.5178  105.0926   -6.4198 C.3      13        0    0.0000
     81 H         179.1877  104.2670   -7.9215 H        13        0    0.0000
     82 H         180.7970  103.5539   -7.9232 H        13        0    0.0000
     83 H         181.5837  105.3266   -6.3072 H        13        0    0.0000
     84 H         179.9738  106.0383   -6.3047 H        13        0    0.0000
     85 C         180.0896  104.1198   -5.2676 C.3      14        0    0.0000
     86 C         180.3503  104.7138   -3.8790 C.3      14        0    0.0000
     87 H         179.0244  103.8837   -5.3817 H        14        0    0.0000
     88 H         180.6356  103.1751   -5.3811 H        14        0    0.0000
     89 H         181.4153  104.9510   -3.7652 H        14        0    0.0000
     90 H         179.8033  105.6580   -3.7650 H        14        0    0.0000
     91 C         179.9235  103.7404   -2.7267 C.3      15        0    0.0000
     92 C         180.1969  104.3287   -1.3381 C.3      15        0    0.0000
     93 H         178.8561  103.5112   -2.8346 H        15        0    0.0000
     94 H         180.4629  102.7926   -2.8465 H        15        0    0.0000
     95 H         181.2687  104.5311   -1.2197 H        15        0    0.0000
     96 H         179.6807  105.2906   -1.2288 H        15        0    0.0000
     97 C         179.7330  103.3725   -0.1858 C.3      16        0    0.0000
     98 C         180.2198  103.8417    1.1897 C.3      16        0    0.0000
     99 H         178.6377  103.3114   -0.1965 H        16        0    0.0000
    100 H         180.1069  102.3621   -0.3927 H        16        0    0.0000
    101 H         179.4107  103.7536    1.9253 H        16        0    0.0000
    102 H         181.0355  103.1971    1.5399 H        16        0    0.0000
    103 C         180.7229  105.3262    1.1673 C.3      17        0    0.0000
    104 C         181.5314  105.6845    2.4191 C.3      17        0    0.0000
    105 H         181.3333  105.4792    0.2686 H        17        0    0.0000
    106 H         179.8558  105.9921    1.0762 H        17        0    0.0000
    107 H         180.8730  106.1225    3.1795 H        17        0    0.0000
    108 H         181.9629  104.7776    2.8605 H        17        0    0.0000
    109 C         182.6887  106.6956    2.1096 C.3      18        0    0.0000
    110 C         183.4290  107.1367    3.3770 C.3      18        0    0.0000
    111 H         183.3900  106.2266    1.4083 H        18        0    0.0000
    112 H         182.2673  107.5692    1.5968 H        18        0    0.0000
    113 H         183.9909  106.2933    3.7972 H        18        0    0.0000
    114 H         184.1636  107.9139    3.1324 H        18        0    0.0000
    115 C         182.4537  107.6900    4.4726 C.3      19        0    0.0000
    116 C         183.0634  107.6288    5.8774 C.3      19        0    0.0000
    117 H         182.1905  108.7250    4.2215 H        19        0    0.0000
    118 H         181.5221  107.1116    4.4413 H        19        0    0.0000
    119 H         183.8840  106.9010    5.9000 H        19        0    0.0000
    120 H         183.4973  108.6011    6.1418 H        19        0    0.0000
    121 C         182.0075  107.2337    6.9666 C.3      20        0    0.0000
    122 C         182.5760  107.3255    8.3870 C.3      20        0    0.0000
    123 H         181.1346  107.8908    6.8676 H        20        0    0.0000
    124 H         181.6580  106.2133    6.7665 H        20        0    0.0000
    125 H         183.3716  106.5824    8.5224 H        20        0    0.0000
    126 H         183.0338  108.3097    8.5461 H        20        0    0.0000
    127 C         181.4782  107.0958    9.4822 C.3      21        0    0.0000
    128 C         182.0144  107.3266   10.8994 C.3      21        0    0.0000
    129 H         180.6352  107.7694    9.2847 H        21        0    0.0000
    130 H         181.0930  106.0730    9.3877 H        21        0    0.0000
    131 H         182.8260  106.6204   11.1141 H        21        0    0.0000
    132 H         182.4430  108.3332   10.9801 H        21        0    0.0000
    133 C         180.9003  107.1628   11.9901 C.3      22        0    0.0000
    134 C         181.4326  107.4105   13.4058 C.3      22        0    0.0000
    135 H         180.0830  107.8600   11.7681 H        22        0    0.0000
    136 H         180.4805  106.1518   11.9176 H        22        0    0.0000
    137 H         182.2470  106.7102   13.6294 H        22        0    0.0000
    138 H         181.8566  108.4198   13.4770 H        22        0    0.0000
    139 C         180.3172  107.2529   14.4959 C.3      23        0    0.0000
    140 C         180.8462  107.5147   15.9104 C.3      23        0    0.0000
    141 H         179.4981  107.9456   14.2664 H        23        0    0.0000
    142 H         179.9005  106.2401   14.4317 H        23        0    0.0000
    143 H         181.6599  106.8166   16.1429 H        23        0    0.0000
    144 H         181.2702  108.5246   15.9724 H        23        0    0.0000
    145 C         179.7282  107.3683   16.9994 C.3      24        0    0.0000
    146 C         180.1711  106.4859   18.1716 C.3      24        0    0.0000
    147 H         179.4553  108.3670   17.3625 H        24        0    0.0000
    148 H         178.8303  106.9475   16.5301 H        24        0    0.0000
    149 H         181.0053  106.9590   18.7044 H        24        0    0.0000
    150 H         179.3530  106.3831   18.8953 H        24        0    0.0000
    151 C         180.6152  105.0568   17.7048 C.3      25        0    0.0000
    152 C         179.8927  103.9443   18.4725 C.3      25        0    0.0000
    153 H         180.4204  104.9596   16.6296 H        25        0    0.0000
    154 H         181.7001  104.9625   17.8382 H        25        0    0.0000
    155 H         180.0876  104.0415   19.5477 H        25        0    0.0000
    156 H         178.8079  104.0386   18.3391 H        25        0    0.0000
    157 H         180.2015  102.9507   18.1478 H        25        0    0.0000
    158 H         179.2798  105.1487  -40.4349 H         0        0    0.0000
@<TRIPOS>BOND
     1     1     2      1
     2     1     3      1
     3     1     4      1
     4     1   158      H
     5     2     5      1
     6     2     6      1
     7     2     7      1
     8     7     8      1
     9     7     9      1
    10     7    10      1
    11     8    11      1
    12     8    12      1
    13     8    13      1
    14    13    14      1
    15    13    15      1
    16    13    16      1
    17    14    17      1
    18    14    18      1
    19    14    19      1
    20    19    20      1
    21    19    21      1
    22    19    22      1
    23    20    23      1
    24    20    24      1
    25    20    25      1
    26    25    26      1
    27    25    27      1
    28    25    28      1
    29    26    29      1
    30    26    30      1
    31    26    31      1
    32    31    32      1
    33    31    33      1
    34    31    34      1
    35    32    35      1
    36    32    36      1
    37    32    37      1
    38    37    38      1
    39    37    39      1
    40    37    40      1
    41    38    41      1
    42    38    42      1
    43    38    43      1
    44    43    44      1
    45    43    45      1
    46    43    46      1
    47    44    47      1
    48    44    48      1
    49    44    49      1
    50    49    50      1
    51    49    51      1
    52    49    52      1
    53    50    53      1
    54    50    54      1
    55    50    55      1
    56    55    56      1
    57    55    57      1
    58    55    58      1
    59    56    59      1
    60    56    60      1
    61    56    61      1
    62    61    62      1
    63    61    63      1
    64    61    64      1
    65    62    65      1
    66    62    66      1
    67    62    67      1
    68    67    68      1
    69    67    69      1
    70    67    70      1
    71    68    71      1
    72    68    72      1
    73    68    73      1
    74    73    74      1
    75    73    75      1
    76    73    76      1
    77    74    77      1
    78    74    78      1
    79    74    79      1
    80    79    80      1
    81    79    81      1
    82    79    82      1
    83    80    83      1
    84    80    84      1
    85    80    85      1
    86    85    86      1
    87    85    87      1
    88    85    88      1
    89    86    89      1
    90    86    90      1
    91    86    91      1
    92    91    92      1
    93    91    93      1
    94    91    94      1
    95    92    95      1
    96    92    96      1
    97    92    97      1
    98    97    98      1
    99    97    99      1
   100    97   100      1
   101    98   101      1
   102    98   102      1
   103    98   103      1
   104   103   104      1
   105   103   105      1
   106   103   106      1
   107   104   107      1
   108   104   108      1
   109   104   109      1
   110   109   110      1
   111   109   111      1
   112   109   112      1
   113   110   113      1
   114   110   114      1
   115   110   115      1
   116   115   116      1
   117   115   117      1
   118   115   118      1
   119   116   119      1
   120   116   120      1
   121   116   121      1
   122   121   122      1
   123   121   123      1
   124   121   124      1
   125   122   125      1
   126   122   126      1
   127   122   127      1
   128   127   128      1
   129   127   129      1
   130   127   130      1
   131   128   131      1
   132   128   132      1
   133   128   133      1
   134   133   134      1
   135   133   135      1
   136   133   136      1
   137   134   137      1
   138   134   138      1
   139   134   139      1
   140   139   140      1
   141   139   141      1
   142   139   142      1
   143   140   143      1
   144   140   144      1
   145   140   145      1
   146   145   146      1
   147   145   147      1
   148   145   148      1
   149   146   149      1
   150   146   150      1
   151   146   151      1
   152   151   152      1
   153   151   153      1
   154   151   154      1
   155   152   155      1
   156   152   156      1
   157   152   157      H
