###
### Created by PolyChef-cpp17 on Thu Feb 27 19:40:28 2025
###

@<TRIPOS>MOLECULE
NO_INFO
704 703 1 0 0
SMALL
USER_CHARGES


@<TRIPOS>ATOM
      1 C         119.2798  139.7887  -39.3449 C.3       0        0    0.0000
      2 C         117.8706  139.6282  -38.7641 C.3       0        0    0.0000
      3 H         119.9271  138.9766  -38.9913 H         0        0    0.0000
      4 H         119.7280  140.7255  -38.9913 H         0        0    0.0000
      5 H         117.3725  140.6042  -38.7102 H         0        0    0.0000
      6 H         117.2608  138.9994  -39.4247 H         0        0    0.0000
      7 C         117.8872  138.9897  -37.3325 C.3       1        0    0.0000
      8 C         119.1645  139.3331  -36.5582 C.3       1        0    0.0000
      9 H         117.0066  139.3389  -36.7793 H         1        0    0.0000
     10 H         117.7872  137.9015  -37.4295 H         1        0    0.0000
     11 H         120.0453  139.1560  -37.1879 H         1        0    0.0000
     12 H         119.1720  140.3990  -36.2986 H         1        0    0.0000
     13 C         119.3063  138.4918  -35.2430 C.3       2        0    0.0000
     14 C         120.2039  139.1788  -34.2079 C.3       2        0    0.0000
     15 H         118.3075  138.3230  -34.8218 H         2        0    0.0000
     16 H         119.7122  137.5046  -35.4968 H         2        0    0.0000
     17 H         121.2585  139.0567  -34.4845 H         2        0    0.0000
     18 H         120.0047  140.2575  -34.1941 H         2        0    0.0000
     19 C         119.9908  138.6070  -32.7639 C.3       3        0    0.0000
     20 C         120.6222  139.4971  -31.6877 C.3       3        0    0.0000
     21 H         118.9143  138.5015  -32.5808 H         3        0    0.0000
     22 H         120.4189  137.5981  -32.7164 H         3        0    0.0000
     23 H         121.7114  139.5263  -31.8153 H         3        0    0.0000
     24 H         120.2647  140.5286  -31.7954 H         3        0    0.0000
     25 C         120.2964  138.9981  -30.2378 C.3       4        0    0.0000
     26 C         120.9041  139.9043  -29.1614 C.3       4        0    0.0000
     27 H         119.2071  138.9490  -30.1172 H         4        0    0.0000
     28 H         120.6725  137.9738  -30.1235 H         4        0    0.0000
     29 H         121.9940  139.9483  -29.2782 H         4        0    0.0000
     30 H         120.5328  140.9298  -29.2796 H         4        0    0.0000
     31 C         120.5708  139.4102  -27.7115 C.3       5        0    0.0000
     32 C         121.1854  140.3117  -26.6351 C.3       5        0    0.0000
     33 H         119.4809  139.3720  -27.5927 H         5        0    0.0000
     34 H         120.9367  138.3825  -27.5952 H         5        0    0.0000
     35 H         122.2753  140.3508  -26.7545 H         5        0    0.0000
     36 H         120.8188  141.3392  -26.7506 H         5        0    0.0000
     37 C         120.8534  139.8168  -25.1851 C.3       6        0    0.0000
     38 C         121.4467  140.7325  -24.1088 C.3       6        0    0.0000
     39 H         119.7637  139.7600  -25.0717 H         6        0    0.0000
     40 H         121.2365  138.7961  -25.0635 H         6        0    0.0000
     41 H         122.5368  140.7866  -24.2200 H         6        0    0.0000
     42 H         121.0664  141.7541  -24.2325 H         6        0    0.0000
     43 C         121.1106  140.2404  -22.6588 C.3       7        0    0.0000
     44 C         122.2058  140.6087  -21.6519 C.3       7        0    0.0000
     45 H         120.1531  140.6779  -22.3500 H         7        0    0.0000
     46 H         120.9682  139.1528  -22.6787 H         7        0    0.0000
     47 H         123.1835  140.2747  -22.0206 H         7        0    0.0000
     48 H         122.2657  141.6988  -21.5432 H         7        0    0.0000
     49 C         121.9538  139.9734  -20.2411 C.3       8        0    0.0000
     50 C         121.9791  141.0186  -19.1204 C.3       8        0    0.0000
     51 H         120.9853  139.4582  -20.2532 H         8        0    0.0000
     52 H         122.7164  139.2063  -20.0575 H         8        0    0.0000
     53 H         123.0154  141.2435  -18.8392 H         8        0    0.0000
     54 H         121.5372  141.9588  -19.4729 H         8        0    0.0000
     55 C         121.2018  140.5415  -17.8455 C.3       9        0    0.0000
     56 C         122.0684  140.5961  -16.5825 C.3       9        0    0.0000
     57 H         120.3116  141.1700  -17.7183 H         9        0    0.0000
     58 H         120.8436  139.5181  -18.0120 H         9        0    0.0000
     59 H         123.0769  140.2242  -16.8020 H         9        0    0.0000
     60 H         122.1815  141.6350  -16.2485 H         9        0    0.0000
     61 C         121.4625  139.7513  -15.4092 C.3      10        0    0.0000
     62 C         121.7836  140.3506  -14.0357 C.3      10        0    0.0000
     63 H         120.3760  139.6846  -15.5459 H        10        0    0.0000
     64 H         121.8515  138.7274  -15.4732 H        10        0    0.0000
     65 H         122.8606  140.2827  -13.8381 H        10        0    0.0000
     66 H         121.5273  141.4173  -14.0215 H        10        0    0.0000
     67 C         121.0110  139.6299  -12.8776 C.3      11        0    0.0000
     68 C         121.4759  140.0934  -11.4927 C.3      11        0    0.0000
     69 H         119.9371  139.8200  -12.9971 H        11        0    0.0000
     70 H         121.1523  138.5467  -12.9788 H        11        0    0.0000
     71 H         122.5575  139.9425  -11.3890 H        11        0    0.0000
     72 H         121.2953  141.1692  -11.3758 H        11        0    0.0000
     73 C         120.7458  139.3298  -10.3346 C.3      12        0    0.0000
     74 C         121.1985  139.8050   -8.9496 C.3      12        0    0.0000
     75 H         119.6635  139.4706  -10.4454 H        12        0    0.0000
     76 H         120.9365  138.2550  -10.4444 H        12        0    0.0000
     77 H         122.2803  139.6612   -8.8376 H        12        0    0.0000
     78 H         121.0108  140.8805   -8.8410 H        12        0    0.0000
     79 C         120.4651  139.0446   -7.7915 C.3      13        0    0.0000
     80 C         120.9312  139.5069   -6.4065 C.3      13        0    0.0000
     81 H         119.3840  139.1997   -7.8956 H        13        0    0.0000
     82 H         120.6416  137.9681   -7.9078 H        13        0    0.0000
     83 H         122.0140  139.3618   -6.3062 H        13        0    0.0000
     84 H         120.7448  140.5813   -6.2861 H        13        0    0.0000
     85 C         120.2087  138.7358   -5.2485 C.3      14        0    0.0000
     86 C         120.7388  139.1336   -3.8666 C.3      14        0    0.0000
     87 H         119.1315  138.9345   -5.3097 H        14        0    0.0000
     88 H         120.3397  137.6580   -5.4057 H        14        0    0.0000
     89 H         121.8032  138.8809   -3.7850 H        14        0    0.0000
     90 H         120.6617  140.2197   -3.7325 H        14        0    0.0000
     91 C         119.9606  138.4245   -2.7051 C.3      15        0    0.0000
     92 C         120.3028  139.0137   -1.3322 C.3      15        0    0.0000
     93 H         118.8838  138.5137   -2.8949 H        15        0    0.0000
     94 H         120.1962  137.3532   -2.7240 H        15        0    0.0000
     95 H         121.0853  138.4147   -0.8502 H        15        0    0.0000
     96 H         120.7079  140.0267   -1.4479 H        15        0    0.0000
     97 C         119.0560  139.0735   -0.3838 C.3      16        0    0.0000
     98 C         118.9145  140.4356    0.3045 C.3      16        0    0.0000
     99 H         118.1551  138.8528   -0.9698 H        16        0    0.0000
    100 H         119.1451  138.2796    0.3680 H        16        0    0.0000
    101 H         119.3526  140.3964    1.3095 H        16        0    0.0000
    102 H         119.4722  141.1984   -0.2528 H        16        0    0.0000
    103 C         117.4186  140.8890    0.4228 C.3      17        0    0.0000
    104 C         117.2787  142.4127    0.5116 C.3      17        0    0.0000
    105 H         116.8646  140.5104   -0.4452 H        17        0    0.0000
    106 H         116.9754  140.4183    1.3091 H        17        0    0.0000
    107 H         117.7338  142.7787    1.4403 H        17        0    0.0000
    108 H         117.8216  142.8890   -0.3142 H        17        0    0.0000
    109 C         115.7817  142.8756    0.4658 C.3      18        0    0.0000
    110 C         115.4198  143.7886    1.6424 C.3      18        0    0.0000
    111 H         115.6012  143.3955   -0.4832 H        18        0    0.0000
    112 H         115.1370  141.9880    0.4663 H        18        0    0.0000
    113 H         116.3291  144.2266    2.0723 H        18        0    0.0000
    114 H         114.8019  144.6252    1.2931 H        18        0    0.0000
    115 C         114.6448  143.0246    2.7707 C.3      19        0    0.0000
    116 C         113.2882  143.6670    3.0810 C.3      19        0    0.0000
    117 H         114.5049  141.9819    2.4598 H        19        0    0.0000
    118 H         115.2663  143.0033    3.6745 H        19        0    0.0000
    119 H         113.1248  143.6956    4.1654 H        19        0    0.0000
    120 H         113.2763  144.7074    2.7330 H        19        0    0.0000
    121 C         112.0988  142.8965    2.4108 C.3      20        0    0.0000
    122 C         111.0181  142.5022    3.4236 C.3      20        0    0.0000
    123 H         111.6659  143.5284    1.6255 H        20        0    0.0000
    124 H         112.4928  142.0014    1.9136 H        20        0    0.0000
    125 H         111.4141  141.7582    4.1258 H        20        0    0.0000
    126 H         110.7259  143.3749    4.0208 H        20        0    0.0000
    127 C         109.7410  141.9136    2.7307 C.3      21        0    0.0000
    128 C         108.5610  141.7854    3.7004 C.3      21        0    0.0000
    129 H         109.4667  142.5596    1.8876 H        21        0    0.0000
    130 H         109.9888  140.9320    2.3079 H        21        0    0.0000
    131 H         108.5946  140.8132    4.2074 H        21        0    0.0000
    132 H         108.6321  142.5513    4.4826 H        21        0    0.0000
    133 C         107.1784  141.9300    2.9759 C.3      22        0    0.0000
    134 C         106.0170  142.0776    3.9650 C.3      22        0    0.0000
    135 H         107.2177  142.8004    2.3093 H        22        0    0.0000
    136 H         107.0199  141.0516    2.3380 H        22        0    0.0000
    137 H         105.0727  142.2018    3.4206 H        22        0    0.0000
    138 H         105.9165  141.1654    4.5661 H        22        0    0.0000
    139 C         106.2090  143.2991    4.9287 C.3      23        0    0.0000
    140 C         105.0502  143.4435    5.9214 C.3      23        0    0.0000
    141 H         107.1552  143.1768    5.4703 H        23        0    0.0000
    142 H         106.3056  144.2118    4.3278 H        23        0    0.0000
    143 H         105.1010  142.6497    6.6770 H        23        0    0.0000
    144 H         105.1322  144.3962    6.4593 H        23        0    0.0000
    145 C         103.6519  143.3806    5.2155 C.3      24        0    0.0000
    146 C         102.4998  143.6799    6.1810 C.3      24        0    0.0000
    147 H         103.6425  144.0972    4.3850 H        24        0    0.0000
    148 H         103.5233  142.3846    4.7737 H        24        0    0.0000
    149 H         101.5502  143.3383    5.7509 H        24        0    0.0000
    150 H         102.6395  143.1248    7.1169 H        24        0    0.0000
    151 C         102.3840  145.2078    6.5122 C.3      25        0    0.0000
    152 C         100.9865  145.5893    7.0128 C.3      25        0    0.0000
    153 H         103.1371  145.4639    7.2676 H        25        0    0.0000
    154 H         102.6315  145.7844    5.6123 H        25        0    0.0000
    155 H         100.2570  144.8289    6.7075 H        25        0    0.0000
    156 H         100.9741  145.6154    8.1095 H        25        0    0.0000
    157 C         100.5207  146.9837    6.4688 C.3      26        0    0.0000
    158 C          99.0468  147.2658    6.7803 C.3      26        0    0.0000
    159 H         101.1541  147.7643    6.9082 H        26        0    0.0000
    160 H         100.6888  147.0146    5.3851 H        26        0    0.0000
    161 H          98.8645  148.3476    6.7890 H        26        0    0.0000
    162 H          98.4088  146.8452    5.9932 H        26        0    0.0000
    163 C          98.6064  146.6681    8.1610 C.3      27        0    0.0000
    164 C          97.1217  146.9126    8.4527 C.3      27        0    0.0000
    165 H          98.8181  145.5917    8.1640 H        27        0    0.0000
    166 H          99.2233  147.1127    8.9517 H        27        0    0.0000
    167 H          96.9318  147.9875    8.5619 H        27        0    0.0000
    168 H          96.5110  146.5689    7.6086 H        27        0    0.0000
    169 C          96.6435  146.1803    9.7536 C.3      28        0    0.0000
    170 C          95.2218  146.5849   10.1588 C.3      28        0    0.0000
    171 H          96.6935  145.0969    9.5883 H        28        0    0.0000
    172 H          97.3452  146.4077   10.5657 H        28        0    0.0000
    173 H          95.1210  147.6772   10.1368 H        28        0    0.0000
    174 H          94.4974  146.1872    9.4372 H        28        0    0.0000
    175 C          94.8431  146.0712   11.5906 C.3      29        0    0.0000
    176 C          93.7358  146.9121   12.2353 C.3      29        0    0.0000
    177 H          94.5258  145.0235   11.5178 H        29        0    0.0000
    178 H          95.7412  146.0853   12.2204 H        29        0    0.0000
    179 H          93.7296  147.9206   11.8036 H        29        0    0.0000
    180 H          92.7547  146.4711   12.0198 H        29        0    0.0000
    181 C          93.9069  147.0287   13.7892 C.3      30        0    0.0000
    182 C          92.7947  147.8624   14.4351 C.3      30        0    0.0000
    183 H          93.9194  146.0200   14.2203 H        30        0    0.0000
    184 H          94.8854  147.4756   14.0047 H        30        0    0.0000
    185 H          93.1349  148.8952   14.5805 H        30        0    0.0000
    186 H          91.9240  147.9083   13.7693 H        30        0    0.0000
    187 C          92.3427  147.2799   15.8185 C.3      31        0    0.0000
    188 C          91.1275  148.0182   16.3906 C.3      31        0    0.0000
    189 H          92.1118  146.2145   15.6952 H        31        0    0.0000
    190 H          93.1842  147.3407   16.5198 H        31        0    0.0000
    191 H          91.4303  149.0006   16.7737 H        31        0    0.0000
    192 H          90.3918  148.2022   15.5979 H        31        0    0.0000
    193 C          90.4352  147.2166   17.5463 C.3      32        0    0.0000
    194 C          89.0630  147.7929   17.9119 C.3      32        0    0.0000
    195 H          90.3331  146.1687   17.2379 H        32        0    0.0000
    196 H          91.0925  147.2239   18.4247 H        32        0    0.0000
    197 H          89.1787  148.7941   18.3451 H        32        0    0.0000
    198 H          88.4511  147.9092   17.0088 H        32        0    0.0000
    199 C          88.2908  146.8871   18.9321 C.3      33        0    0.0000
    200 C          86.8195  146.7005   18.5455 C.3      33        0    0.0000
    201 H          88.7913  145.9125   18.9890 H        33        0    0.0000
    202 H          88.3634  147.3372   19.9300 H        33        0    0.0000
    203 H          86.2456  147.5988   18.8048 H        33        0    0.0000
    204 H          86.7293  146.5716   17.4598 H        33        0    0.0000
    205 C          86.1706  145.4635   19.2569 C.3      34        0    0.0000
    206 C          84.6403  145.5456   19.2836 C.3      34        0    0.0000
    207 H          86.4893  144.5504   18.7391 H        34        0    0.0000
    208 H          86.5617  145.3985   20.2798 H        34        0    0.0000
    209 H          84.3223  146.4954   19.7311 H        34        0    0.0000
    210 H          84.2449  145.5314   18.2604 H        34        0    0.0000
    211 C          83.9961  144.3661   20.0906 C.3      35        0    0.0000
    212 C          82.5140  144.6114   20.3944 C.3      35        0    0.0000
    213 H          84.1139  143.4389   19.5163 H        35        0    0.0000
    214 H          84.5543  144.2308   21.0254 H        35        0    0.0000
    215 H          82.3903  145.5692   20.9150 H        35        0    0.0000
    216 H          81.9456  144.6855   19.4591 H        35        0    0.0000
    217 C          81.8918  143.4736   21.2751 C.3      36        0    0.0000
    218 C          81.0611  144.0276   22.4379 C.3      36        0    0.0000
    219 H          81.2679  142.8345   20.6381 H        36        0    0.0000
    220 H          82.7016  142.8409   21.6593 H        36        0    0.0000
    221 H          81.5627  144.8988   22.8770 H        36        0    0.0000
    222 H          80.0873  144.3760   22.0720 H        36        0    0.0000
    223 C          80.8261  142.9602   23.5617 C.3      37        0    0.0000
    224 C          79.3465  142.5893   23.7103 C.3      37        0    0.0000
    225 H          81.4166  142.0655   23.3286 H        37        0    0.0000
    226 H          81.2123  143.3543   24.5099 H        37        0    0.0000
    227 H          78.8758  143.2191   24.4755 H        37        0    0.0000
    228 H          78.8138  142.7835   22.7711 H        37        0    0.0000
    229 C          79.1477  141.0845   24.1022 C.3      38        0    0.0000
    230 C          78.3439  140.9228   25.3971 C.3      38        0    0.0000
    231 H          78.6404  140.5685   23.2777 H        38        0    0.0000
    232 H          80.1329  140.6140   24.2097 H        38        0    0.0000
    233 H          78.6491  141.6832   26.1267 H        38        0    0.0000
    234 H          77.2769  141.0853   25.2004 H        38        0    0.0000
    235 C          78.5292  139.5043   26.0382 C.3      39        0    0.0000
    236 C          77.3382  139.1034   26.9156 C.3      39        0    0.0000
    237 H          78.6696  138.7693   25.2359 H        39        0    0.0000
    238 H          79.4515  139.5025   26.6322 H        39        0    0.0000
    239 H          77.2888  139.7494   27.8009 H        39        0    0.0000
    240 H          76.4000  139.2497   26.3661 H        39        0    0.0000
    241 C          77.4216  137.6097   27.3841 C.3      40        0    0.0000
    242 C          76.0473  137.0376   27.7486 C.3      40        0    0.0000
    243 H          77.8774  137.0131   26.5842 H        40        0    0.0000
    244 H          78.0961  137.5470   28.2471 H        40        0    0.0000
    245 H          75.6734  137.5115   28.6646 H        40        0    0.0000
    246 H          75.3227  137.2664   26.9572 H        40        0    0.0000
    247 C          76.0878  135.4852   27.9631 C.3      41        0    0.0000
    248 C          74.8152  134.7958   27.4590 C.3      41        0    0.0000
    249 H          76.9657  135.0795   27.4453 H        41        0    0.0000
    250 H          76.2291  135.2795   29.0314 H        41        0    0.0000
    251 H          73.9780  135.0109   28.1346 H        41        0    0.0000
    252 H          74.5364  135.1935   26.4753 H        41        0    0.0000
    253 C          74.9865  133.2417   27.3457 C.3      42        0    0.0000
    254 C          73.6950  132.5457   26.9021 C.3      42        0    0.0000
    255 H          75.7935  133.0258   26.6346 H        42        0    0.0000
    256 H          75.3101  132.8498   28.3179 H        42        0    0.0000
    257 H          72.8844  132.7733   27.6054 H        42        0    0.0000
    258 H          73.3792  132.9274   25.9232 H        42        0    0.0000
    259 C          73.8607  130.9897   26.8083 C.3      43        0    0.0000
    260 C          72.7216  130.2411   27.5091 C.3      43        0    0.0000
    261 H          73.9052  130.7020   25.7506 H        43        0    0.0000
    262 H          74.8241  130.7093   27.2519 H        43        0    0.0000
    263 H          72.3320  130.8418   28.3403 H        43        0    0.0000
    264 H          71.8876  130.0882   26.8129 H        43        0    0.0000
    265 C          73.1790  128.8479   28.0634 C.3      44        0    0.0000
    266 C          72.6501  128.5833   29.4774 C.3      44        0    0.0000
    267 H          72.8319  128.0638   27.3791 H        44        0    0.0000
    268 H          74.2753  128.8078   28.0583 H        44        0    0.0000
    269 H          72.3732  129.5295   29.9586 H        44        0    0.0000
    270 H          71.7381  127.9752   29.4302 H        44        0    0.0000
    271 C          73.7020  127.8475   30.3772 C.3      45        0    0.0000
    272 C          73.5107  126.3268   30.3693 C.3      45        0    0.0000
    273 H          74.7090  128.1018   30.0239 H        45        0    0.0000
    274 H          73.6212  128.2315   31.4017 H        45        0    0.0000
    275 H          72.9284  126.0164   31.2457 H        45        0    0.0000
    276 H          72.9352  126.0247   29.4855 H        45        0    0.0000
    277 C          74.8759  125.5564   30.3710 C.3      46        0    0.0000
    278 C          74.6851  124.0366   30.4251 C.3      46        0    0.0000
    279 H          75.4391  125.8329   29.4710 H        46        0    0.0000
    280 H          75.4702  125.8917   31.2300 H        46        0    0.0000
    281 H          73.9188  123.7799   31.1670 H        46        0    0.0000
    282 H          74.3227  123.6682   29.4574 H        46        0    0.0000
    283 C          76.0115  123.2838   30.7877 C.3      47        0    0.0000
    284 C          75.7814  121.7894   31.0385 C.3      47        0    0.0000
    285 H          76.7310  123.4218   29.9710 H        47        0    0.0000
    286 H          76.4515  123.7512   31.6774 H        47        0    0.0000
    287 H          74.8534  121.6416   31.6047 H        47        0    0.0000
    288 H          75.6556  121.2629   30.0843 H        47        0    0.0000
    289 C          76.9650  121.1302   31.8272 C.3      48        0    0.0000
    290 C          76.6673  119.6774   32.2141 C.3      48        0    0.0000
    291 H          77.8707  121.1770   31.2099 H        48        0    0.0000
    292 H          77.1656  121.7255   32.7265 H        48        0    0.0000
    293 H          77.5226  119.0382   31.9624 H        48        0    0.0000
    294 H          76.5239  119.5989   33.2989 H        48        0    0.0000
    295 C          75.3910  119.1204   31.4941 C.3      49        0    0.0000
    296 C          74.8792  117.8268   32.1374 C.3      49        0    0.0000
    297 H          74.6078  119.8881   31.5186 H        49        0    0.0000
    298 H          75.6288  118.9464   30.4374 H        49        0    0.0000
    299 H          74.5810  117.1125   31.3600 H        49        0    0.0000
    300 H          75.6822  117.3495   32.7126 H        49        0    0.0000
    301 C          73.6580  118.0786   33.0875 C.3      50        0    0.0000
    302 C          73.0828  116.7750   33.6521 C.3      50        0    0.0000
    303 H          73.9767  118.7350   33.9067 H        50        0    0.0000
    304 H          72.8836  118.6218   32.5317 H        50        0    0.0000
    305 H          73.7983  116.3180   34.3469 H        50        0    0.0000
    306 H          72.1732  116.9838   34.2288 H        50        0    0.0000
    307 C          72.7406  115.7397   32.5258 C.3      51        0    0.0000
    308 C          72.4329  114.3482   33.0898 C.3      51        0    0.0000
    309 H          71.8821  116.1115   31.9528 H        51        0    0.0000
    310 H          73.5851  115.6844   31.8278 H        51        0    0.0000
    311 H          72.1580  114.4241   34.1492 H        51        0    0.0000
    312 H          71.5695  113.9143   32.5705 H        51        0    0.0000
    313 C          73.6496  113.3692   32.9525 C.3      52        0    0.0000
    314 C          73.2833  111.9305   33.3332 C.3      52        0    0.0000
    315 H          74.0158  113.4032   31.9189 H        52        0    0.0000
    316 H          74.4674  113.7301   33.5885 H        52        0    0.0000
    317 H          74.0848  111.4851   33.9354 H        52        0    0.0000
    318 H          72.3805  111.9246   33.9565 H        52        0    0.0000
    319 C          73.0350  111.0280   32.0757 C.3      53        0    0.0000
    320 C          72.9315  109.5424   32.4381 C.3      53        0    0.0000
    321 H          72.1144  111.3591   31.5791 H        53        0    0.0000
    322 H          73.8523  111.1848   31.3610 H        53        0    0.0000
    323 H          72.3238  109.4174   33.3429 H        53        0    0.0000
    324 H          72.4201  108.9945   31.6370 H        53        0    0.0000
    325 C          74.3366  108.8905   32.6792 C.3      54        0    0.0000
    326 C          74.2631  107.3611   32.7484 C.3      54        0    0.0000
    327 H          75.0125  109.1985   31.8718 H        54        0    0.0000
    328 H          74.7564  109.2895   33.6109 H        54        0    0.0000
    329 H          74.1019  107.0388   33.7845 H        54        0    0.0000
    330 H          73.4049  106.9992   32.1687 H        54        0    0.0000
    331 C          75.5649  106.6786   32.2035 C.3      55        0    0.0000
    332 C          75.4715  105.1489   32.2253 C.3      55        0    0.0000
    333 H          75.7467  107.0298   31.1802 H        55        0    0.0000
    334 H          76.4182  107.0119   32.8072 H        55        0    0.0000
    335 H          75.3667  104.7931   33.2577 H        55        0    0.0000
    336 H          74.5748  104.8192   31.6859 H        55        0    0.0000
    337 C          76.7278  104.4677   31.5810 C.3      56        0    0.0000
    338 C          76.3459  103.3451   30.6100 C.3      56        0    0.0000
    339 H          77.3161  105.2326   31.0590 H        56        0    0.0000
    340 H          77.3650  104.0721   32.3815 H        56        0    0.0000
    341 H          76.2980  102.3872   31.1426 H        56        0    0.0000
    342 H          75.3452  103.5274   30.1990 H        56        0    0.0000
    343 C          77.3628  103.2136   29.4242 C.3      57        0    0.0000
    344 C          78.4502  102.1705   29.7045 C.3      57        0    0.0000
    345 H          76.8119  102.9474   28.5137 H        57        0    0.0000
    346 H          77.8203  104.1937   29.2404 H        57        0    0.0000
    347 H          78.1152  101.4790   30.4876 H        57        0    0.0000
    348 H          78.6317  101.5660   28.8071 H        57        0    0.0000
    349 C          79.8012  102.8265   30.1537 C.3      58        0    0.0000
    350 C          80.9598  102.4709   29.2155 C.3      58        0    0.0000
    351 H          79.6698  103.9149   30.1934 H        58        0    0.0000
    352 H          80.0306  102.4994   31.1754 H        58        0    0.0000
    353 H          81.8599  102.2419   29.7993 H        58        0    0.0000
    354 H          80.7168  101.5668   28.6436 H        58        0    0.0000
    355 C          81.2893  103.6298   28.2126 C.3      59        0    0.0000
    356 C          82.7957  103.8880   28.0979 C.3      59        0    0.0000
    357 H          80.8754  103.3748   27.2292 H        59        0    0.0000
    358 H          80.7757  104.5408   28.5439 H        59        0    0.0000
    359 H          83.2815  103.7163   29.0664 H        59        0    0.0000
    360 H          83.2457  103.1809   27.3900 H        59        0    0.0000
    361 C          83.1138  105.3483   27.6247 C.3      60        0    0.0000
    362 C          84.0801  105.3759   26.4353 C.3      60        0    0.0000
    363 H          82.1736  105.8460   27.3572 H        60        0    0.0000
    364 H          83.5382  105.9084   28.4672 H        60        0    0.0000
    365 H          85.1058  105.1946   26.7797 H        60        0    0.0000
    366 H          83.8361  104.5687   25.7336 H        60        0    0.0000
    367 C          84.0387  106.7422   25.6680 C.3      61        0    0.0000
    368 C          84.9596  106.7484   24.4428 C.3      61        0    0.0000
    369 H          83.0048  106.9450   25.3624 H        61        0    0.0000
    370 H          84.3262  107.5446   26.3587 H        61        0    0.0000
    371 H          86.0027  106.6158   24.7556 H        61        0    0.0000
    372 H          84.7178  105.9035   23.7862 H        61        0    0.0000
    373 C          84.8441  108.0774   23.6195 C.3      62        0    0.0000
    374 C          85.4944  107.9622   22.2364 C.3      62        0    0.0000
    375 H          83.7835  108.3382   23.5159 H        62        0    0.0000
    376 H          85.3137  108.8885   24.1896 H        62        0    0.0000
    377 H          86.5589  107.7183   22.3404 H        62        0    0.0000
    378 H          85.0364  107.1401   21.6726 H        62        0    0.0000
    379 C          85.3578  109.2835   21.4038 C.3      63        0    0.0000
    380 C          85.9794  109.1576   20.0085 C.3      63        0    0.0000
    381 H          84.2946  109.5404   21.3202 H        63        0    0.0000
    382 H          85.8369  110.1010   21.9567 H        63        0    0.0000
    383 H          85.3413  108.5372   19.3671 H        63        0    0.0000
    384 H          86.0393  110.1445   19.5330 H        63        0    0.0000
    385 C          87.4150  108.5297   20.0521 C.3      64        0    0.0000
    386 C          87.6895  107.6235   18.8469 C.3      64        0    0.0000
    387 H          88.1542  109.3394   20.0899 H        64        0    0.0000
    388 H          87.5238  107.9602   20.9834 H        64        0    0.0000
    389 H          86.7431  107.3047   18.3927 H        64        0    0.0000
    390 H          88.2376  108.1788   18.0757 H        64        0    0.0000
    391 C          88.5169  106.3504   19.2370 C.3      65        0    0.0000
    392 C          89.8580  106.2804   18.4984 C.3      65        0    0.0000
    393 H          88.6844  106.3560   20.3212 H        65        0    0.0000
    394 H          87.9183  105.4581   19.0154 H        65        0    0.0000
    395 H          89.7316  105.7672   17.5370 H        65        0    0.0000
    396 H          90.2153  107.2923   18.2707 H        65        0    0.0000
    397 C          90.9560  105.5321   19.3302 C.3      66        0    0.0000
    398 C          92.2973  105.4626   18.5918 C.3      66        0    0.0000
    399 H          91.0820  106.0451   20.2917 H        66        0    0.0000
    400 H          90.5989  104.5200   19.5575 H        66        0    0.0000
    401 H          92.1729  104.9423   17.6341 H        66        0    0.0000
    402 H          92.6503  106.4745   18.3571 H        66        0    0.0000
    403 C          93.3985  104.7247   19.4286 C.3      67        0    0.0000
    404 C          94.7437  104.6676   18.6961 C.3      67        0    0.0000
    405 H          93.5156  105.2389   20.3906 H        67        0    0.0000
    406 H          93.0499  103.7093   19.6544 H        67        0    0.0000
    407 H          95.2118  105.6598   18.6914 H        67        0    0.0000
    408 H          95.4320  103.9971   19.2254 H        67        0    0.0000
    409 C          94.5938  104.1725   17.2163 C.3      68        0    0.0000
    410 C          95.8667  104.4042   16.3946 C.3      68        0    0.0000
    411 H          94.3404  103.1052   17.2245 H        68        0    0.0000
    412 H          93.7469  104.6938   16.7531 H        68        0    0.0000
    413 H          96.7284  104.5267   17.0624 H        68        0    0.0000
    414 H          96.0752  103.5275   15.7688 H        68        0    0.0000
    415 C          95.7574  105.6680   15.4735 C.3      69        0    0.0000
    416 C          96.9914  105.8454   14.5820 C.3      69        0    0.0000
    417 H          94.8561  105.5777   14.8547 H        69        0    0.0000
    418 H          95.6187  106.5546   16.1047 H        69        0    0.0000
    419 H          97.8965  105.9025   15.1994 H        69        0    0.0000
    420 H          97.1111  104.9732   13.9274 H        69        0    0.0000
    421 C          96.9029  107.1347   13.6947 C.3      70        0    0.0000
    422 C          98.2713  107.7938   13.4896 C.3      70        0    0.0000
    423 H          96.4650  106.8673   12.7250 H        70        0    0.0000
    424 H          96.2115  107.8429   14.1680 H        70        0    0.0000
    425 H          98.8478  107.7619   14.4224 H        70        0    0.0000
    426 H          98.8495  107.2356   12.7427 H        70        0    0.0000
    427 C          98.1485  109.2850   13.0222 C.3      71        0    0.0000
    428 C          99.1748  110.1947   13.7066 C.3      71        0    0.0000
    429 H          98.2764  109.3261   11.9334 H        71        0    0.0000
    430 H          97.1319  109.6392   13.2335 H        71        0    0.0000
    431 H          99.4175  109.8050   14.7030 H        71        0    0.0000
    432 H         100.1110  110.2025   13.1347 H        71        0    0.0000
    433 C          98.6592  111.6679   13.8520 C.3      72        0    0.0000
    434 C          99.7361  112.6981   13.4940 C.3      72        0    0.0000
    435 H          97.7821  111.8010   13.2067 H        72        0    0.0000
    436 H          98.3182  111.8231   14.8831 H        72        0    0.0000
    437 H         100.5579  112.6508   14.2192 H        72        0    0.0000
    438 H         100.1680  112.4653   12.5128 H        72        0    0.0000
    439 C          99.1725  114.1606   13.4638 C.3      73        0    0.0000
    440 C         100.2608  115.2080   13.7239 C.3      73        0    0.0000
    441 H          98.7042  114.3391   12.4879 H        73        0    0.0000
    442 H          98.3781  114.2490   14.2153 H        73        0    0.0000
    443 H         100.8186  114.9530   14.6335 H        73        0    0.0000
    444 H         100.9854  115.2100   12.9002 H        73        0    0.0000
    445 C          99.6705  116.6517   13.8811 C.3      74        0    0.0000
    446 C         100.7324  117.6697   14.3114 C.3      74        0    0.0000
    447 H          99.2222  116.9562   12.9272 H        74        0    0.0000
    448 H          98.8571  116.6230   14.6166 H        74        0    0.0000
    449 H         101.1790  117.3665   15.2665 H        74        0    0.0000
    450 H         101.5471  117.6967   13.5772 H        74        0    0.0000
    451 C         100.1428  119.1141   14.4652 C.3      75        0    0.0000
    452 C         101.2380  120.1841   14.5353 C.3      75        0    0.0000
    453 H          99.4742  119.3151   13.6190 H        75        0    0.0000
    454 H          99.5244  119.1490   15.3707 H        75        0    0.0000
    455 H         101.8361  120.0511   15.4453 H        75        0    0.0000
    456 H         101.9256  120.0746   13.6875 H        75        0    0.0000
    457 C         100.6503  121.6373   14.5248 C.3      76        0    0.0000
    458 C         101.1635  122.4799   15.6976 C.3      76        0    0.0000
    459 H         100.9117  122.1176   13.5737 H        76        0    0.0000
    460 H          99.5554  121.5762   14.5563 H        76        0    0.0000
    461 H         102.2577  122.4217   15.7522 H        76        0    0.0000
    462 H         100.9117  123.5361   15.5407 H        76        0    0.0000
    463 C         100.5639  122.0160   17.0697 C.3      77        0    0.0000
    464 C         100.1116  123.1974   17.9351 C.3      77        0    0.0000
    465 H          99.7175  121.3452   16.8770 H        77        0    0.0000
    466 H         101.3185  121.4255   17.6039 H        77        0    0.0000
    467 H         100.3586  123.0091   18.9873 H        77        0    0.0000
    468 H         100.6516  124.1064   17.6425 H        77        0    0.0000
    469 C          98.5714  123.4646   17.8176 C.3      78        0    0.0000
    470 C          97.8886  123.5390   19.1878 C.3      78        0    0.0000
    471 H          98.4159  124.4015   17.2685 H        78        0    0.0000
    472 H          98.1192  122.6674   17.2148 H        78        0    0.0000
    473 H          98.6275  123.7735   19.9641 H        78        0    0.0000
    474 H          97.1525  124.3523   19.1976 H        78        0    0.0000
    475 C          97.1668  122.1996   19.5653 C.3      79        0    0.0000
    476 C          95.6958  122.4171   19.9365 C.3      79        0    0.0000
    477 H          97.2425  121.5062   18.7186 H        79        0    0.0000
    478 H          97.7011  121.7338   20.4027 H        79        0    0.0000
    479 H          95.5882  122.4805   21.0265 H        79        0    0.0000
    480 H          95.3423  123.3724   19.5290 H        79        0    0.0000
    481 C          94.7724  121.2679   19.4036 C.3      80        0    0.0000
    482 C          93.6498  121.7951   18.5031 C.3      80        0    0.0000
    483 H          95.3883  120.5458   18.8533 H        80        0    0.0000
    484 H          94.3465  120.7306   20.2600 H        80        0    0.0000
    485 H          92.7269  121.9155   19.0838 H        80        0    0.0000
    486 H          93.9116  122.7885   18.1181 H        80        0    0.0000
    487 C          93.3637  120.8429   17.2911 C.3      81        0    0.0000
    488 C          93.4063  121.5819   15.9491 C.3      81        0    0.0000
    489 H          94.1017  120.0312   17.2972 H        81        0    0.0000
    490 H          92.3810  120.3761   17.4325 H        81        0    0.0000
    491 H          92.3906  121.8572   15.6389 H        81        0    0.0000
    492 H          93.9686  122.5181   16.0529 H        81        0    0.0000
    493 C          94.0642  120.7201   14.8169 C.3      82        0    0.0000
    494 C          95.0478  121.5316   13.9665 C.3      82        0    0.0000
    495 H          94.5789  119.8668   15.2759 H        82        0    0.0000
    496 H          93.2713  120.3054   14.1821 H        82        0    0.0000
    497 H          94.5229  121.9908   13.1197 H        82        0    0.0000
    498 H          95.4687  122.3531   14.5593 H        82        0    0.0000
    499 C          96.2229  120.6522   13.4158 C.3      83        0    0.0000
    500 C          95.9515  120.1434   11.9958 C.3      83        0    0.0000
    501 H          97.1461  121.2447   13.4330 H        83        0    0.0000
    502 H          96.3794  119.8053   14.0954 H        83        0    0.0000
    503 H          94.8760  120.1797   11.7823 H        83        0    0.0000
    504 H          96.4405  120.7964   11.2623 H        83        0    0.0000
    505 C          96.4595  118.6756   11.7834 C.3      84        0    0.0000
    506 C          95.3623  117.7543   11.2389 C.3      84        0    0.0000
    507 H          97.3126  118.6929   11.0939 H        84        0    0.0000
    508 H          96.8348  118.2895   12.7393 H        84        0    0.0000
    509 H          94.3865  118.0526   11.6416 H        84        0    0.0000
    510 H          95.2962  117.8519   10.1482 H        84        0    0.0000
    511 C          95.6181  116.2497   11.5970 C.3      85        0    0.0000
    512 C          94.6049  115.3133   10.9294 C.3      85        0    0.0000
    513 H          96.6368  115.9815   11.2906 H        85        0    0.0000
    514 H          95.5762  116.1336   12.6871 H        85        0    0.0000
    515 H          93.6466  115.3550   11.4619 H        85        0    0.0000
    516 H          94.4088  115.6427    9.9015 H        85        0    0.0000
    517 C          95.1010  113.8266   10.8977 C.3      86        0    0.0000
    518 C          94.1660  112.9194   10.0903 C.3      86        0    0.0000
    519 H          96.1115  113.8001   10.4714 H        86        0    0.0000
    520 H          95.1841  113.4595   11.9282 H        86        0    0.0000
    521 H          94.6512  112.6174    9.1539 H        86        0    0.0000
    522 H          93.9600  111.9984   10.6497 H        86        0    0.0000
    523 C          92.8052  113.6199    9.7514 C.3      87        0    0.0000
    524 C          91.9087  112.7489    8.8644 C.3      87        0    0.0000
    525 H          92.2879  113.8598   10.6886 H        87        0    0.0000
    526 H          93.0135  114.5748    9.2532 H        87        0    0.0000
    527 H          90.9104  112.6602    9.3105 H        87        0    0.0000
    528 H          91.7747  113.2230    7.8842 H        87        0    0.0000
    529 C          92.4976  111.3114    8.6541 C.3      88        0    0.0000
    530 C          91.5378  110.3973    7.8845 C.3      88        0    0.0000
    531 H          93.4502  111.3947    8.1163 H        88        0    0.0000
    532 H          92.7265  110.8761    9.6348 H        88        0    0.0000
    533 H          90.4991  110.6851    8.0890 H        88        0    0.0000
    534 H          91.6907  110.5154    6.8045 H        88        0    0.0000
    535 C          91.7270  108.8870    8.2593 C.3      89        0    0.0000
    536 C          90.7882  107.9700    7.4675 C.3      89        0    0.0000
    537 H          92.7712  108.6051    8.0758 H        89        0    0.0000
    538 H          91.5523  108.7652    9.3355 H        89        0    0.0000
    539 H          91.0476  106.9195    7.6483 H        89        0    0.0000
    540 H          89.7547  108.1029    7.8109 H        89        0    0.0000
    541 C          90.8480  108.2471    5.9258 C.3      90        0    0.0000
    542 C          89.9603  107.2857    5.1279 C.3      90        0    0.0000
    543 H          90.5408  109.2839    5.7407 H        90        0    0.0000
    544 H          91.8894  108.1626    5.5914 H        90        0    0.0000
    545 H          89.2738  107.8521    4.4865 H        90        0    0.0000
    546 H          90.5769  106.6690    4.4623 H        90        0    0.0000
    547 C          89.1211  106.3424    6.0572 C.3      91        0    0.0000
    548 C          88.5447  105.1421    5.2982 C.3      91        0    0.0000
    549 H          89.7599  105.9962    6.8792 H        91        0    0.0000
    550 H          88.3101  106.9244    6.5122 H        91        0    0.0000
    551 H          87.7931  104.6331    5.9142 H        91        0    0.0000
    552 H          88.0304  105.4824    4.3909 H        91        0    0.0000
    553 C          89.6512  104.1078    4.8939 C.3      92        0    0.0000
    554 C          89.0859  102.9433    4.0733 C.3      92        0    0.0000
    555 H          90.4295  104.6281    4.3218 H        92        0    0.0000
    556 H          90.1304  103.7284    5.8049 H        92        0    0.0000
    557 H          89.9027  102.3069    3.7110 H        92        0    0.0000
    558 H          88.4508  102.3108    4.7059 H        92        0    0.0000
    559 C          88.2453  103.4350    2.8449 C.3      93        0    0.0000
    560 C          87.4689  102.2941    2.1782 C.3      93        0    0.0000
    561 H          87.5520  104.2160    3.1807 H        93        0    0.0000
    562 H          88.9211  103.9044    2.1192 H        93        0    0.0000
    563 H          88.1199  101.7537    1.4799 H        93        0    0.0000
    564 H          87.1454  101.5674    2.9338 H        93        0    0.0000
    565 C          86.2091  102.8082    1.3997 C.3      94        0    0.0000
    566 C          85.4366  101.6681    0.7271 C.3      94        0    0.0000
    567 H          85.5555  103.3441    2.0992 H        94        0    0.0000
    568 H          86.5320  103.5388    0.6477 H        94        0    0.0000
    569 H          85.9859  101.3088   -0.1519 H        94        0    0.0000
    570 H          85.3491  100.8168    1.4136 H        94        0    0.0000
    571 C          83.9995  102.1067    0.2803 C.3      95        0    0.0000
    572 C          83.0176  100.9304    0.2455 C.3      95        0    0.0000
    573 H          83.6358  102.8800    0.9684 H        95        0    0.0000
    574 H          84.0640  102.5722   -0.7110 H        95        0    0.0000
    575 H          83.2826  100.2432   -0.5676 H        95        0    0.0000
    576 H          83.0853  100.3562    1.1779 H        95        0    0.0000
    577 C          81.5350  101.3996    0.0476 C.3      96        0    0.0000
    578 C          80.8758  100.7434   -1.1705 C.3      96        0    0.0000
    579 H          80.9656  101.1649    0.9555 H        96        0    0.0000
    580 H          81.5210  102.4913   -0.0596 H        96        0    0.0000
    581 H          81.6443  100.3703   -1.8588 H        96        0    0.0000
    582 H          80.2857   99.8737   -0.8559 H        96        0    0.0000
    583 C          79.9410  101.7345   -1.9461 C.3      97        0    0.0000
    584 C          80.1835  101.6980   -3.4590 C.3      97        0    0.0000
    585 H          78.8966  101.4807   -1.7263 H        97        0    0.0000
    586 H          80.1060  102.7491   -1.5630 H        97        0    0.0000
    587 H          81.1994  101.3409   -3.6687 H        97        0    0.0000
    588 H          79.4955  100.9870   -3.9332 H        97        0    0.0000
    589 C          79.9948  103.1045   -4.1250 C.3      98        0    0.0000
    590 C          80.1368  103.0488   -5.6501 C.3      98        0    0.0000
    591 H          79.0061  103.4946   -3.8533 H        98        0    0.0000
    592 H          80.7336  103.7973   -3.7035 H        98        0    0.0000
    593 H          81.1648  102.7796   -5.9225 H        98        0    0.0000
    594 H          79.4869  102.2658   -6.0600 H        98        0    0.0000
    595 C          79.7746  104.4137   -6.3307 C.3      99        0    0.0000
    596 C          79.8688  104.3438   -7.8589 C.3      99        0    0.0000
    597 H          78.7596  104.7008   -6.0292 H        99        0    0.0000
    598 H          80.4485  105.1899   -5.9474 H        99        0    0.0000
    599 H          79.4843  105.2706   -8.3023 H        99        0    0.0000
    600 H          80.9181  104.2586   -8.1675 H        99        0    0.0000
    601 C          79.0686  103.1316   -8.4486 C.3     100        0    0.0000
    602 C          79.2214  103.0195   -9.9695 C.3     100        0    0.0000
    603 H          79.4172  102.2098   -7.9666 H       100        0    0.0000
    604 H          78.0100  103.2445   -8.1841 H       100        0    0.0000
    605 H          79.7275  102.0813  -10.2286 H       100        0    0.0000
    606 H          78.2334  102.9864  -10.4453 H       100        0    0.0000
    607 C          80.0338  104.2158  -10.5748 C.3     101        0    0.0000
    608 C          80.1255  104.1416  -12.1029 C.3     101        0    0.0000
    609 H          79.5570  105.1563  -10.2717 H       101        0    0.0000
    610 H          81.0398  104.2173  -10.1372 H       101        0    0.0000
    611 H          80.5967  105.0509  -12.4961 H       101        0    0.0000
    612 H          80.7647  103.3014  -12.4010 H       101        0    0.0000
    613 C          78.7195  103.9701  -12.7747 C.3     102        0    0.0000
    614 C          78.8138  103.8669  -14.3010 C.3     102        0    0.0000
    615 H          78.2394  103.0724  -12.3660 H       102        0    0.0000
    616 H          78.0871  104.8213  -12.4936 H       102        0    0.0000
    617 H          78.4131  102.9030  -14.6383 H       102        0    0.0000
    618 H          78.1985  104.6451  -14.7694 H       102        0    0.0000
    619 C          80.2875  104.0097  -14.8162 C.3     103        0    0.0000
    620 C          80.3752  103.9631  -16.3456 C.3     103        0    0.0000
    621 H          80.7021  104.9548  -14.4443 H       103        0    0.0000
    622 H          80.8940  103.2063  -14.3799 H       103        0    0.0000
    623 H          81.4001  104.1813  -16.6704 H       103        0    0.0000
    624 H          80.1389  102.9540  -16.7054 H       103        0    0.0000
    625 C          79.4007  104.9839  -17.0280 C.3     104        0    0.0000
    626 C          79.3589  104.8179  -18.5510 C.3     104        0    0.0000
    627 H          78.3965  104.8495  -16.6073 H       104        0    0.0000
    628 H          79.7170  106.0020  -16.7691 H       104        0    0.0000
    629 H          78.3918  104.4003  -18.8575 H       104        0    0.0000
    630 H          79.4482  105.7966  -19.0387 H       104        0    0.0000
    631 C          80.5024  103.8843  -19.0785 C.3     105        0    0.0000
    632 C          80.4367  103.6864  -20.5969 C.3     105        0    0.0000
    633 H          81.4704  104.3171  -18.7971 H       105        0    0.0000
    634 H          80.4307  102.9152  -18.5694 H       105        0    0.0000
    635 H          81.3537  103.2008  -20.9530 H       105        0    0.0000
    636 H          79.6059  103.0174  -20.8535 H       105        0    0.0000
    637 C          80.2509  105.0403  -21.3650 C.3     106        0    0.0000
    638 C          80.0559  104.8318  -22.8708 C.3     106        0    0.0000
    639 H          79.3877  105.5703  -20.9437 H       106        0    0.0000
    640 H          81.1284  105.6732  -21.1834 H       106        0    0.0000
    641 H          79.0198  104.5373  -23.0787 H       106        0    0.0000
    642 H          80.2293  105.7734  -23.4065 H       106        0    0.0000
    643 C          81.0180  103.7372  -23.4486 C.3     107        0    0.0000
    644 C          80.7526  103.4547  -24.9314 C.3     107        0    0.0000
    645 H          82.0546  104.0679  -23.3084 H       107        0    0.0000
    646 H          80.8990  102.8172  -22.8631 H       107        0    0.0000
    647 H          81.5934  102.8992  -25.3649 H       107        0    0.0000
    648 H          79.8654  102.8186  -25.0401 H       107        0    0.0000
    649 C          80.5360  104.7694  -25.7572 C.3     108        0    0.0000
    650 C          80.1518  104.4841  -27.2133 C.3     108        0    0.0000
    651 H          79.7543  105.3670  -25.2721 H       108        0    0.0000
    652 H          81.4563  105.3654  -25.7209 H       108        0    0.0000
    653 H          79.2045  103.9322  -27.2511 H       108        0    0.0000
    654 H          79.9892  105.4264  -27.7509 H       108        0    0.0000
    655 C          81.2495  103.6559  -27.9660 C.3     109        0    0.0000
    656 C          80.9230  103.4746  -29.4524 C.3     109        0    0.0000
    657 H          82.2155  104.1634  -27.8522 H       109        0    0.0000
    658 H          81.3488  102.6770  -27.4806 H       109        0    0.0000
    659 H          81.7536  102.9698  -29.9612 H       109        0    0.0000
    660 H          80.0435  102.8291  -29.5684 H       109        0    0.0000
    661 C          80.6457  104.8402  -30.1706 C.3     110        0    0.0000
    662 C          80.1819  104.6511  -31.6191 C.3     110        0    0.0000
    663 H          79.8867  105.3913  -29.6015 H       110        0    0.0000
    664 H          81.5602  105.4456  -30.1444 H       110        0    0.0000
    665 H          79.1128  104.4062  -31.6428 H       110        0    0.0000
    666 H          80.3031  105.5872  -32.1781 H       110        0    0.0000
    667 C          80.9765  103.5171  -32.3540 C.3     111        0    0.0000
    668 C          80.5905  103.4021  -33.8328 C.3     111        0    0.0000
    669 H          82.0505  103.7201  -32.2603 H       111        0    0.0000
    670 H          80.7898  102.5653  -31.8414 H       111        0    0.0000
    671 H          81.2325  102.6665  -34.3330 H       111        0    0.0000
    672 H          79.5605  103.0359  -33.9254 H       111        0    0.0000
    673 C          80.7094  104.7717  -34.5861 C.3     112        0    0.0000
    674 C          80.3032  104.6613  -36.0598 C.3     112        0    0.0000
    675 H          80.0793  105.5113  -34.0766 H       112        0    0.0000
    676 H          81.7431  105.1304  -34.5066 H       112        0    0.0000
    677 H          79.2146  104.5535  -36.1429 H       112        0    0.0000
    678 H          80.5703  105.5818  -36.5936 H       112        0    0.0000
    679 C          80.9875  103.4458  -36.7752 C.3     113        0    0.0000
    680 C          80.5384  103.3021  -38.2335 C.3     113        0    0.0000
    681 H          82.0759  103.5745  -36.7276 H       113        0    0.0000
    682 H          80.7539  102.5302  -36.2177 H       113        0    0.0000
    683 H          81.1866  102.5894  -38.7582 H       113        0    0.0000
    684 H          79.5214  102.8929  -38.2754 H       113        0    0.0000
    685 C          80.5651  104.6689  -39.0007 C.3     114        0    0.0000
    686 C          79.8070  104.6031  -40.3311 C.3     114        0    0.0000
    687 H          80.1299  105.4439  -38.3577 H       114        0    0.0000
    688 H          81.6094  104.9554  -39.1766 H       114        0    0.0000
    689 H          78.8190  105.0678  -40.2244 H       114        0    0.0000
    690 H          80.3431  105.1756  -41.0983 H       114        0    0.0000
    691 C          79.6212  103.1310  -40.8369 C.3     115        0    0.0000
    692 C          78.8277  103.0625  -42.1463 C.3     115        0    0.0000
    693 H          80.6103  102.6761  -40.9722 H       115        0    0.0000
    694 H          79.1116  102.5510  -40.0575 H       115        0    0.0000
    695 H          79.4302  103.4599  -42.9725 H       115        0    0.0000
    696 H          78.6018  102.0182  -42.3951 H       115        0    0.0000
    697 C          77.4836  103.8656  -42.0693 C.3     116        0    0.0000
    698 C          76.8249  104.0288  -43.4435 C.3     116        0    0.0000
    699 H          76.8011  103.3478  -41.3840 H       116        0    0.0000
    700 H          77.6848  104.8502  -41.6292 H       116        0    0.0000
    701 H          77.5074  104.5467  -44.1287 H       116        0    0.0000
    702 H          76.6237  103.0442  -43.8835 H       116        0    0.0000
    703 H          75.8903  104.5872  -43.3899 H       116        0    0.0000
    704 H         119.2798  139.7887  -40.4349 H         0        0    0.0000
@<TRIPOS>BOND
     1     1     2      1
     2     1     3      1
     3     1     4      1
     4     1   704      H
     5     2     5      1
     6     2     6      1
     7     2     7      1
     8     7     8      1
     9     7     9      1
    10     7    10      1
    11     8    11      1
    12     8    12      1
    13     8    13      1
    14    13    14      1
    15    13    15      1
    16    13    16      1
    17    14    17      1
    18    14    18      1
    19    14    19      1
    20    19    20      1
    21    19    21      1
    22    19    22      1
    23    20    23      1
    24    20    24      1
    25    20    25      1
    26    25    26      1
    27    25    27      1
    28    25    28      1
    29    26    29      1
    30    26    30      1
    31    26    31      1
    32    31    32      1
    33    31    33      1
    34    31    34      1
    35    32    35      1
    36    32    36      1
    37    32    37      1
    38    37    38      1
    39    37    39      1
    40    37    40      1
    41    38    41      1
    42    38    42      1
    43    38    43      1
    44    43    44      1
    45    43    45      1
    46    43    46      1
    47    44    47      1
    48    44    48      1
    49    44    49      1
    50    49    50      1
    51    49    51      1
    52    49    52      1
    53    50    53      1
    54    50    54      1
    55    50    55      1
    56    55    56      1
    57    55    57      1
    58    55    58      1
    59    56    59      1
    60    56    60      1
    61    56    61      1
    62    61    62      1
    63    61    63      1
    64    61    64      1
    65    62    65      1
    66    62    66      1
    67    62    67      1
    68    67    68      1
    69    67    69      1
    70    67    70      1
    71    68    71      1
    72    68    72      1
    73    68    73      1
    74    73    74      1
    75    73    75      1
    76    73    76      1
    77    74    77      1
    78    74    78      1
    79    74    79      1
    80    79    80      1
    81    79    81      1
    82    79    82      1
    83    80    83      1
    84    80    84      1
    85    80    85      1
    86    85    86      1
    87    85    87      1
    88    85    88      1
    89    86    89      1
    90    86    90      1
    91    86    91      1
    92    91    92      1
    93    91    93      1
    94    91    94      1
    95    92    95      1
    96    92    96      1
    97    92    97      1
    98    97    98      1
    99    97    99      1
   100    97   100      1
   101    98   101      1
   102    98   102      1
   103    98   103      1
   104   103   104      1
   105   103   105      1
   106   103   106      1
   107   104   107      1
   108   104   108      1
   109   104   109      1
   110   109   110      1
   111   109   111      1
   112   109   112      1
   113   110   113      1
   114   110   114      1
   115   110   115      1
   116   115   116      1
   117   115   117      1
   118   115   118      1
   119   116   119      1
   120   116   120      1
   121   116   121      1
   122   121   122      1
   123   121   123      1
   124   121   124      1
   125   122   125      1
   126   122   126      1
   127   122   127      1
   128   127   128      1
   129   127   129      1
   130   127   130      1
   131   128   131      1
   132   128   132      1
   133   128   133      1
   134   133   134      1
   135   133   135      1
   136   133   136      1
   137   134   137      1
   138   134   138      1
   139   134   139      1
   140   139   140      1
   141   139   141      1
   142   139   142      1
   143   140   143      1
   144   140   144      1
   145   140   145      1
   146   145   146      1
   147   145   147      1
   148   145   148      1
   149   146   149      1
   150   146   150      1
   151   146   151      1
   152   151   152      1
   153   151   153      1
   154   151   154      1
   155   152   155      1
   156   152   156      1
   157   152   157      1
   158   157   158      1
   159   157   159      1
   160   157   160      1
   161   158   161      1
   162   158   162      1
   163   158   163      1
   164   163   164      1
   165   163   165      1
   166   163   166      1
   167   164   167      1
   168   164   168      1
   169   164   169      1
   170   169   170      1
   171   169   171      1
   172   169   172      1
   173   170   173      1
   174   170   174      1
   175   170   175      1
   176   175   176      1
   177   175   177      1
   178   175   178      1
   179   176   179      1
   180   176   180      1
   181   176   181      1
   182   181   182      1
   183   181   183      1
   184   181   184      1
   185   182   185      1
   186   182   186      1
   187   182   187      1
   188   187   188      1
   189   187   189      1
   190   187   190      1
   191   188   191      1
   192   188   192      1
   193   188   193      1
   194   193   194      1
   195   193   195      1
   196   193   196      1
   197   194   197      1
   198   194   198      1
   199   194   199      1
   200   199   200      1
   201   199   201      1
   202   199   202      1
   203   200   203      1
   204   200   204      1
   205   200   205      1
   206   205   206      1
   207   205   207      1
   208   205   208      1
   209   206   209      1
   210   206   210      1
   211   206   211      1
   212   211   212      1
   213   211   213      1
   214   211   214      1
   215   212   215      1
   216   212   216      1
   217   212   217      1
   218   217   218      1
   219   217   219      1
   220   217   220      1
   221   218   221      1
   222   218   222      1
   223   218   223      1
   224   223   224      1
   225   223   225      1
   226   223   226      1
   227   224   227      1
   228   224   228      1
   229   224   229      1
   230   229   230      1
   231   229   231      1
   232   229   232      1
   233   230   233      1
   234   230   234      1
   235   230   235      1
   236   235   236      1
   237   235   237      1
   238   235   238      1
   239   236   239      1
   240   236   240      1
   241   236   241      1
   242   241   242      1
   243   241   243      1
   244   241   244      1
   245   242   245      1
   246   242   246      1
   247   242   247      1
   248   247   248      1
   249   247   249      1
   250   247   250      1
   251   248   251      1
   252   248   252      1
   253   248   253      1
   254   253   254      1
   255   253   255      1
   256   253   256      1
   257   254   257      1
   258   254   258      1
   259   254   259      1
   260   259   260      1
   261   259   261      1
   262   259   262      1
   263   260   263      1
   264   260   264      1
   265   260   265      1
   266   265   266      1
   267   265   267      1
   268   265   268      1
   269   266   269      1
   270   266   270      1
   271   266   271      1
   272   271   272      1
   273   271   273      1
   274   271   274      1
   275   272   275      1
   276   272   276      1
   277   272   277      1
   278   277   278      1
   279   277   279      1
   280   277   280      1
   281   278   281      1
   282   278   282      1
   283   278   283      1
   284   283   284      1
   285   283   285      1
   286   283   286      1
   287   284   287      1
   288   284   288      1
   289   284   289      1
   290   289   290      1
   291   289   291      1
   292   289   292      1
   293   290   293      1
   294   290   294      1
   295   290   295      1
   296   295   296      1
   297   295   297      1
   298   295   298      1
   299   296   299      1
   300   296   300      1
   301   296   301      1
   302   301   302      1
   303   301   303      1
   304   301   304      1
   305   302   305      1
   306   302   306      1
   307   302   307      1
   308   307   308      1
   309   307   309      1
   310   307   310      1
   311   308   311      1
   312   308   312      1
   313   308   313      1
   314   313   314      1
   315   313   315      1
   316   313   316      1
   317   314   317      1
   318   314   318      1
   319   314   319      1
   320   319   320      1
   321   319   321      1
   322   319   322      1
   323   320   323      1
   324   320   324      1
   325   320   325      1
   326   325   326      1
   327   325   327      1
   328   325   328      1
   329   326   329      1
   330   326   330      1
   331   326   331      1
   332   331   332      1
   333   331   333      1
   334   331   334      1
   335   332   335      1
   336   332   336      1
   337   332   337      1
   338   337   338      1
   339   337   339      1
   340   337   340      1
   341   338   341      1
   342   338   342      1
   343   338   343      1
   344   343   344      1
   345   343   345      1
   346   343   346      1
   347   344   347      1
   348   344   348      1
   349   344   349      1
   350   349   350      1
   351   349   351      1
   352   349   352      1
   353   350   353      1
   354   350   354      1
   355   350   355      1
   356   355   356      1
   357   355   357      1
   358   355   358      1
   359   356   359      1
   360   356   360      1
   361   356   361      1
   362   361   362      1
   363   361   363      1
   364   361   364      1
   365   362   365      1
   366   362   366      1
   367   362   367      1
   368   367   368      1
   369   367   369      1
   370   367   370      1
   371   368   371      1
   372   368   372      1
   373   368   373      1
   374   373   374      1
   375   373   375      1
   376   373   376      1
   377   374   377      1
   378   374   378      1
   379   374   379      1
   380   379   380      1
   381   379   381      1
   382   379   382      1
   383   380   383      1
   384   380   384      1
   385   380   385      1
   386   385   386      1
   387   385   387      1
   388   385   388      1
   389   386   389      1
   390   386   390      1
   391   386   391      1
   392   391   392      1
   393   391   393      1
   394   391   394      1
   395   392   395      1
   396   392   396      1
   397   392   397      1
   398   397   398      1
   399   397   399      1
   400   397   400      1
   401   398   401      1
   402   398   402      1
   403   398   403      1
   404   403   404      1
   405   403   405      1
   406   403   406      1
   407   404   407      1
   408   404   408      1
   409   404   409      1
   410   409   410      1
   411   409   411      1
   412   409   412      1
   413   410   413      1
   414   410   414      1
   415   410   415      1
   416   415   416      1
   417   415   417      1
   418   415   418      1
   419   416   419      1
   420   416   420      1
   421   416   421      1
   422   421   422      1
   423   421   423      1
   424   421   424      1
   425   422   425      1
   426   422   426      1
   427   422   427      1
   428   427   428      1
   429   427   429      1
   430   427   430      1
   431   428   431      1
   432   428   432      1
   433   428   433      1
   434   433   434      1
   435   433   435      1
   436   433   436      1
   437   434   437      1
   438   434   438      1
   439   434   439      1
   440   439   440      1
   441   439   441      1
   442   439   442      1
   443   440   443      1
   444   440   444      1
   445   440   445      1
   446   445   446      1
   447   445   447      1
   448   445   448      1
   449   446   449      1
   450   446   450      1
   451   446   451      1
   452   451   452      1
   453   451   453      1
   454   451   454      1
   455   452   455      1
   456   452   456      1
   457   452   457      1
   458   457   458      1
   459   457   459      1
   460   457   460      1
   461   458   461      1
   462   458   462      1
   463   458   463      1
   464   463   464      1
   465   463   465      1
   466   463   466      1
   467   464   467      1
   468   464   468      1
   469   464   469      1
   470   469   470      1
   471   469   471      1
   472   469   472      1
   473   470   473      1
   474   470   474      1
   475   470   475      1
   476   475   476      1
   477   475   477      1
   478   475   478      1
   479   476   479      1
   480   476   480      1
   481   476   481      1
   482   481   482      1
   483   481   483      1
   484   481   484      1
   485   482   485      1
   486   482   486      1
   487   482   487      1
   488   487   488      1
   489   487   489      1
   490   487   490      1
   491   488   491      1
   492   488   492      1
   493   488   493      1
   494   493   494      1
   495   493   495      1
   496   493   496      1
   497   494   497      1
   498   494   498      1
   499   494   499      1
   500   499   500      1
   501   499   501      1
   502   499   502      1
   503   500   503      1
   504   500   504      1
   505   500   505      1
   506   505   506      1
   507   505   507      1
   508   505   508      1
   509   506   509      1
   510   506   510      1
   511   506   511      1
   512   511   512      1
   513   511   513      1
   514   511   514      1
   515   512   515      1
   516   512   516      1
   517   512   517      1
   518   517   518      1
   519   517   519      1
   520   517   520      1
   521   518   521      1
   522   518   522      1
   523   518   523      1
   524   523   524      1
   525   523   525      1
   526   523   526      1
   527   524   527      1
   528   524   528      1
   529   524   529      1
   530   529   530      1
   531   529   531      1
   532   529   532      1
   533   530   533      1
   534   530   534      1
   535   530   535      1
   536   535   536      1
   537   535   537      1
   538   535   538      1
   539   536   539      1
   540   536   540      1
   541   536   541      1
   542   541   542      1
   543   541   543      1
   544   541   544      1
   545   542   545      1
   546   542   546      1
   547   542   547      1
   548   547   548      1
   549   547   549      1
   550   547   550      1
   551   548   551      1
   552   548   552      1
   553   548   553      1
   554   553   554      1
   555   553   555      1
   556   553   556      1
   557   554   557      1
   558   554   558      1
   559   554   559      1
   560   559   560      1
   561   559   561      1
   562   559   562      1
   563   560   563      1
   564   560   564      1
   565   560   565      1
   566   565   566      1
   567   565   567      1
   568   565   568      1
   569   566   569      1
   570   566   570      1
   571   566   571      1
   572   571   572      1
   573   571   573      1
   574   571   574      1
   575   572   575      1
   576   572   576      1
   577   572   577      1
   578   577   578      1
   579   577   579      1
   580   577   580      1
   581   578   581      1
   582   578   582      1
   583   578   583      1
   584   583   584      1
   585   583   585      1
   586   583   586      1
   587   584   587      1
   588   584   588      1
   589   584   589      1
   590   589   590      1
   591   589   591      1
   592   589   592      1
   593   590   593      1
   594   590   594      1
   595   590   595      1
   596   595   596      1
   597   595   597      1
   598   595   598      1
   599   596   599      1
   600   596   600      1
   601   596   601      1
   602   601   602      1
   603   601   603      1
   604   601   604      1
   605   602   605      1
   606   602   606      1
   607   602   607      1
   608   607   608      1
   609   607   609      1
   610   607   610      1
   611   608   611      1
   612   608   612      1
   613   608   613      1
   614   613   614      1
   615   613   615      1
   616   613   616      1
   617   614   617      1
   618   614   618      1
   619   614   619      1
   620   619   620      1
   621   619   621      1
   622   619   622      1
   623   620   623      1
   624   620   624      1
   625   620   625      1
   626   625   626      1
   627   625   627      1
   628   625   628      1
   629   626   629      1
   630   626   630      1
   631   626   631      1
   632   631   632      1
   633   631   633      1
   634   631   634      1
   635   632   635      1
   636   632   636      1
   637   632   637      1
   638   637   638      1
   639   637   639      1
   640   637   640      1
   641   638   641      1
   642   638   642      1
   643   638   643      1
   644   643   644      1
   645   643   645      1
   646   643   646      1
   647   644   647      1
   648   644   648      1
   649   644   649      1
   650   649   650      1
   651   649   651      1
   652   649   652      1
   653   650   653      1
   654   650   654      1
   655   650   655      1
   656   655   656      1
   657   655   657      1
   658   655   658      1
   659   656   659      1
   660   656   660      1
   661   656   661      1
   662   661   662      1
   663   661   663      1
   664   661   664      1
   665   662   665      1
   666   662   666      1
   667   662   667      1
   668   667   668      1
   669   667   669      1
   670   667   670      1
   671   668   671      1
   672   668   672      1
   673   668   673      1
   674   673   674      1
   675   673   675      1
   676   673   676      1
   677   674   677      1
   678   674   678      1
   679   674   679      1
   680   679   680      1
   681   679   681      1
   682   679   682      1
   683   680   683      1
   684   680   684      1
   685   680   685      1
   686   685   686      1
   687   685   687      1
   688   685   688      1
   689   686   689      1
   690   686   690      1
   691   686   691      1
   692   691   692      1
   693   691   693      1
   694   691   694      1
   695   692   695      1
   696   692   696      1
   697   692   697      1
   698   697   698      1
   699   697   699      1
   700   697   700      1
   701   698   701      1
   702   698   702      1
   703   698   703      H
