###
### Created by PolyChef-cpp17 on Thu Feb 27 19:40:29 2025
###

@<TRIPOS>MOLECULE
NO_INFO
1574 1573 1 0 0
SMALL
USER_CHARGES


@<TRIPOS>ATOM
      1 C          39.2798    1.2287  120.6551 C.3       0        0    0.0000
      2 C          38.4513    0.0775  120.0742 C.3       0        0    0.0000
      3 H          38.8875    2.1902  120.3015 H         0        0    0.0000
      4 H          40.3162    1.1621  120.3014 H         0        0    0.0000
      5 H          38.4068   -0.7526  120.7901 H         0        0    0.0000
      6 H          37.4177    0.4049  119.9069 H         0        0    0.0000
      7 C          39.0384   -0.4533  118.7210 C.3       1        0    0.0000
      8 C          39.6362    0.6701  117.8669 C.3       1        0    0.0000
      9 H          39.8043   -1.2078  118.9396 H         1        0    0.0000
     10 H          38.2419   -0.9644  118.1663 H         1        0    0.0000
     11 H          38.9455    1.5216  117.8284 H         1        0    0.0000
     12 H          40.5636    1.0372  118.3237 H         1        0    0.0000
     13 C          39.9446    0.2032  116.4025 C.3       2        0    0.0000
     14 C          39.8875    1.3606  115.3995 C.3       2        0    0.0000
     15 H          40.9371   -0.2638  116.3819 H         2        0    0.0000
     16 H          39.2245   -0.5749  116.1204 H         2        0    0.0000
     17 H          38.9680    1.9408  115.5466 H         2        0    0.0000
     18 H          40.7248    2.0485  115.5708 H         2        0    0.0000
     19 C          39.9385    0.8626  113.9140 C.3       3        0    0.0000
     20 C          39.8308    2.0161  112.9106 C.3       3        0    0.0000
     21 H          40.8753    0.3137  113.7571 H         3        0    0.0000
     22 H          39.1231    0.1465  113.7529 H         3        0    0.0000
     23 H          38.8974    2.5694  113.0723 H         3        0    0.0000
     24 H          40.6504    2.7284  113.0669 H         3        0    0.0000
     25 C          39.8716    1.5171  111.4251 C.3       4        0    0.0000
     26 C          39.7326    2.6674  110.4219 C.3       4        0    0.0000
     27 H          40.8152    0.9834  111.2571 H         4        0    0.0000
     28 H          39.0660    0.7876  111.2749 H         4        0    0.0000
     29 H          38.7915    3.2045  110.5934 H         4        0    0.0000
     30 H          40.5412    3.3942  110.5685 H         4        0    0.0000
     31 C          39.7655    2.1676  108.9365 C.3       5        0    0.0000
     32 C          40.7371    2.9787  108.0721 C.3       5        0    0.0000
     33 H          40.0481    1.1076  108.9263 H         5        0    0.0000
     34 H          38.7521    2.2275  108.5206 H         5        0    0.0000
     35 H          40.3111    3.9656  107.8524 H         5        0    0.0000
     36 H          41.6715    3.1537  108.6195 H         5        0    0.0000
     37 C          41.0709    2.2601  106.7194 C.3       6        0    0.0000
     38 C          40.6351    3.0825  105.5017 C.3       6        0    0.0000
     39 H          42.1503    2.0690  106.6776 H         6        0    0.0000
     40 H          40.5769    1.2806  106.7081 H         6        0    0.0000
     41 H          39.7947    3.7348  105.7696 H         6        0    0.0000
     42 H          41.4529    3.7388  105.1789 H         6        0    0.0000
     43 C          40.2075    2.1772  104.2955 C.3       7        0    0.0000
     44 C          40.7557    2.6919  102.9600 C.3       7        0    0.0000
     45 H          40.5608    1.1547  104.4781 H         7        0    0.0000
     46 H          39.1121    2.1303  104.2595 H         7        0    0.0000
     47 H          40.2511    3.6252  102.6809 H         7        0    0.0000
     48 H          41.8228    2.9276  103.0571 H         7        0    0.0000
     49 C          40.5713    1.6519  101.8016 C.3       8        0    0.0000
     50 C          40.6580    2.3032  100.4170 C.3       8        0    0.0000
     51 H          41.3381    0.8735  101.8999 H         8        0    0.0000
     52 H          39.6007    1.1552  101.9236 H         8        0    0.0000
     53 H          39.9521    3.1403  100.3502 H         8        0    0.0000
     54 H          41.6596    2.7225  100.2606 H         8        0    0.0000
     55 C          40.3491    1.2885   99.2627 C.3       9        0    0.0000
     56 C          40.5301    1.9141   97.8753 C.3       9        0    0.0000
     57 H          41.0078    0.4179   99.3716 H         9        0    0.0000
     58 H          39.3215    0.9225   99.3792 H         9        0    0.0000
     59 H          39.8591    2.7744   97.7603 H         9        0    0.0000
     60 H          41.5528    2.2953   97.7651 H         9        0    0.0000
     61 C          40.2444    0.8926   96.7211 C.3      10        0    0.0000
     62 C          40.4273    1.5178   95.3337 C.3      10        0    0.0000
     63 H          40.9143    0.0316   96.8370 H        10        0    0.0000
     64 H          39.2211    0.5125   96.8305 H        10        0    0.0000
     65 H          39.7592    2.3803   95.2187 H        10        0    0.0000
     66 H          41.4513    1.8955   95.2234 H        10        0    0.0000
     67 C          40.1381    0.4972   94.1794 C.3      11        0    0.0000
     68 C          40.3200    1.1226   92.7921 C.3      11        0    0.0000
     69 H          40.8067   -0.3650   94.2940 H        11        0    0.0000
     70 H          39.1143    0.1189   94.2902 H        11        0    0.0000
     71 H          39.6527    1.9859   92.6781 H        11        0    0.0000
     72 H          41.3443    1.4994   92.6807 H        11        0    0.0000
     73 C          40.0284    0.1028   91.6378 C.3      12        0    0.0000
     74 C          40.2114    0.7279   90.2504 C.3      12        0    0.0000
     75 H          40.6952   -0.7608   91.7521 H        12        0    0.0000
     76 H          39.0039   -0.2733   91.7487 H        12        0    0.0000
     77 H          39.5459    1.5927   90.1367 H        12        0    0.0000
     78 H          41.2365    1.1024   90.1388 H        12        0    0.0000
     79 C          39.9172   -0.2911   89.0961 C.3      13        0    0.0000
     80 C          40.0980    0.3346   87.7087 C.3      13        0    0.0000
     81 H          40.5839   -1.1551   89.2088 H        13        0    0.0000
     82 H          38.8927   -0.6669   89.2087 H        13        0    0.0000
     83 H          39.4342    1.2009   87.5974 H        13        0    0.0000
     84 H          41.1236    0.7069   87.5947 H        13        0    0.0000
     85 C          39.7986   -0.6830   86.5545 C.3      14        0    0.0000
     86 C          39.9789   -0.0571   85.1671 C.3      14        0    0.0000
     87 H          40.4627   -1.5491   86.6655 H        14        0    0.0000
     88 H          38.7731   -1.0556   86.6687 H        14        0    0.0000
     89 H          39.3279    0.8198   85.0625 H        14        0    0.0000
     90 H          41.0093    0.2994   85.0462 H        14        0    0.0000
     91 C          39.6550   -1.0673   84.0129 C.3      15        0    0.0000
     92 C          39.8355   -0.4414   82.6256 C.3      15        0    0.0000
     93 H          40.3059   -1.9442   84.1176 H        15        0    0.0000
     94 H          38.6245   -1.4236   84.1337 H        15        0    0.0000
     95 H          39.0592    0.3135   82.4496 H        15        0    0.0000
     96 H          40.7996    0.0792   82.5703 H        15        0    0.0000
     97 C          39.7713   -1.5089   81.4794 C.3      16        0    0.0000
     98 C          39.9547   -0.8835   80.0922 C.3      16        0    0.0000
     99 H          40.5462   -2.2650   81.6565 H        16        0    0.0000
    100 H          38.8064   -2.0281   81.5333 H        16        0    0.0000
    101 H          40.8219   -1.3300   79.5900 H        16        0    0.0000
    102 H          39.0815   -1.0989   79.4640 H        16        0    0.0000
    103 C          40.1558    0.6696   80.1626 C.3      17        0    0.0000
    104 C          40.6344    1.2543   78.8291 C.3      17        0    0.0000
    105 H          39.2081    1.1357   80.4592 H        17        0    0.0000
    106 H          40.8802    0.8968   80.9546 H        17        0    0.0000
    107 H          41.3627    0.5796   78.3623 H        17        0    0.0000
    108 H          39.7919    1.3396   78.1318 H        17        0    0.0000
    109 C          41.2925    2.6666   79.0018 C.3      18        0    0.0000
    110 C          41.6441    3.3119   77.6568 C.3      18        0    0.0000
    111 H          40.6029    3.3122   79.5599 H        18        0    0.0000
    112 H          42.1949    2.5635   79.6169 H        18        0    0.0000
    113 H          42.3704    2.6895   77.1195 H        18        0    0.0000
    114 H          40.7506    3.3717   77.0232 H        18        0    0.0000
    115 C          42.2404    4.7518   77.8265 C.3      19        0    0.0000
    116 C          42.3839    5.4826   76.4870 C.3      19        0    0.0000
    117 H          41.5924    5.3256   78.5006 H        19        0    0.0000
    118 H          43.2175    4.6741   78.3192 H        19        0    0.0000
    119 H          43.0758    4.9373   75.8332 H        19        0    0.0000
    120 H          41.4174    5.5115   75.9688 H        19        0    0.0000
    121 C          42.9065    6.9500   76.6638 C.3      20        0    0.0000
    122 C          43.0878    7.6676   75.3218 C.3      20        0    0.0000
    123 H          42.1994    7.5036   77.2939 H        20        0    0.0000
    124 H          43.8588    6.9231   77.2077 H        20        0    0.0000
    125 H          43.7754    7.1008   74.6819 H        20        0    0.0000
    126 H          42.1300    7.7168   74.7891 H        20        0    0.0000
    127 C          43.6441    9.1228   75.4966 C.3      21        0    0.0000
    128 C          44.1167    9.7273   74.1699 C.3      21        0    0.0000
    129 H          42.8599    9.7505   75.9378 H        21        0    0.0000
    130 H          44.4720    9.1008   76.2161 H        21        0    0.0000
    131 H          44.8449    9.0609   73.6911 H        21        0    0.0000
    132 H          43.2715    9.8203   73.4766 H        21        0    0.0000
    133 C          44.7720   11.1386   74.3600 C.3      22        0    0.0000
    134 C          45.2613   11.7350   73.0357 C.3      22        0    0.0000
    135 H          44.0392   11.8088   74.8264 H        22        0    0.0000
    136 H          45.6087   11.0481   75.0638 H        22        0    0.0000
    137 H          46.0021   11.0700   72.5746 H        22        0    0.0000
    138 H          44.4267   11.8156   72.3282 H        22        0    0.0000
    139 C          45.9030   13.1529   73.2237 C.3      23        0    0.0000
    140 C          46.1557   13.8581   71.8866 C.3      23        0    0.0000
    141 H          45.2389   13.7613   73.8503 H        23        0    0.0000
    142 H          46.8448   13.0444   73.7757 H        23        0    0.0000
    143 H          46.9184   13.3162   71.3138 H        23        0    0.0000
    144 H          45.2420   13.8517   71.2794 H        23        0    0.0000
    145 C          46.6256   15.3415   72.0768 C.3      24        0    0.0000
    146 C          45.7517   16.3319   71.2994 C.3      24        0    0.0000
    147 H          46.6081   15.5836   73.1466 H        24        0    0.0000
    148 H          47.6700   15.4259   71.7518 H        24        0    0.0000
    149 H          45.6341   15.9958   70.2617 H        24        0    0.0000
    150 H          44.7454   16.3678   71.7349 H        24        0    0.0000
    151 C          46.3529   17.7796   71.2966 C.3      25        0    0.0000
    152 C          45.3441   18.8266   70.8116 C.3      25        0    0.0000
    153 H          46.6905   18.0243   72.3113 H        25        0    0.0000
    154 H          47.2440   17.7912   70.6567 H        25        0    0.0000
    155 H          45.0978   18.6514   69.7570 H        25        0    0.0000
    156 H          44.4065   18.7341   71.3737 H        25        0    0.0000
    157 C          45.8848   20.2897   70.9680 C.3      26        0    0.0000
    158 C          44.7722   21.3365   70.8437 C.3      26        0    0.0000
    159 H          46.3803   20.3813   71.9425 H        26        0    0.0000
    160 H          46.6538   20.4658   70.2057 H        26        0    0.0000
    161 H          44.3614   21.3298   69.8265 H        26        0    0.0000
    162 H          43.9445   21.0877   71.5194 H        26        0    0.0000
    163 C          45.2776   22.7829   71.1751 C.3      27        0    0.0000
    164 C          44.1856   23.8397   70.9758 C.3      27        0    0.0000
    165 H          45.6362   22.8033   72.2117 H        27        0    0.0000
    166 H          46.1416   23.0101   70.5383 H        27        0    0.0000
    167 H          43.8067   23.7997   69.9470 H        27        0    0.0000
    168 H          43.3334   23.6287   71.6337 H        27        0    0.0000
    169 C          44.7024   25.2905   71.2680 C.3      28        0    0.0000
    170 C          44.1631   26.3129   70.2616 C.3      28        0    0.0000
    171 H          44.4069   25.5729   72.2860 H        28        0    0.0000
    172 H          45.7993   25.2858   71.2483 H        28        0    0.0000
    173 H          44.0341   25.8418   69.2793 H        28        0    0.0000
    174 H          43.1720   26.6631   70.5756 H        28        0    0.0000
    175 C          45.1113   27.5517   70.1072 C.3      29        0    0.0000
    176 C          45.2158   28.0256   68.6534 C.3      29        0    0.0000
    177 H          44.7371   28.3646   70.7418 H        29        0    0.0000
    178 H          46.1050   27.2861   70.4886 H        29        0    0.0000
    179 H          45.1324   27.1699   67.9719 H        29        0    0.0000
    180 H          44.3829   28.6992   68.4165 H        29        0    0.0000
    181 C          46.5652   28.7702   68.3668 C.3      30        0    0.0000
    182 C          46.6745   29.2343   66.9102 C.3      30        0    0.0000
    183 H          46.6448   29.6306   69.0427 H        30        0    0.0000
    184 H          47.3981   28.0994   68.6114 H        30        0    0.0000
    185 H          46.5907   28.3744   66.2341 H        30        0    0.0000
    186 H          45.8440   29.9085   66.6669 H        30        0    0.0000
    187 C          48.0265   29.9736   66.6221 C.3      31        0    0.0000
    188 C          48.1600   30.3886   65.1527 C.3      31        0    0.0000
    189 H          48.0916   30.8567   67.2697 H        31        0    0.0000
    190 H          48.8570   29.3145   66.9038 H        31        0    0.0000
    191 H          48.0763   29.5078   64.5040 H        31        0    0.0000
    192 H          47.3397   31.0625   64.8762 H        31        0    0.0000
    193 C          49.5232   31.1047   64.8591 C.3      32        0    0.0000
    194 C          49.6705   31.4906   63.3832 C.3      32        0    0.0000
    195 H          49.5962   31.9987   65.4907 H        32        0    0.0000
    196 H          50.3433   30.4401   65.1579 H        32        0    0.0000
    197 H          49.5905   30.5975   62.7511 H        32        0    0.0000
    198 H          48.8543   32.1608   63.0863 H        32        0    0.0000
    199 C          51.0380   32.1979   63.0876 C.3      33        0    0.0000
    200 C          51.2368   32.4766   61.5937 C.3      33        0    0.0000
    201 H          51.0804   33.1363   63.6543 H        33        0    0.0000
    202 H          51.8517   31.5655   63.4639 H        33        0    0.0000
    203 H          51.1685   31.5414   61.0242 H        33        0    0.0000
    204 H          50.4373   33.1301   61.2233 H        33        0    0.0000
    205 C          52.6200   33.1508   61.2941 C.3      34        0    0.0000
    206 C          52.4872   34.3590   60.3606 C.3      34        0    0.0000
    207 H          53.0770   33.4571   62.2432 H        34        0    0.0000
    208 H          53.2887   32.4034   60.8493 H        34        0    0.0000
    209 H          52.3489   34.0216   59.3259 H        34        0    0.0000
    210 H          51.5956   34.9415   60.6238 H        34        0    0.0000
    211 C          53.7408   35.2982   60.4224 C.3      35        0    0.0000
    212 C          53.3567   36.7818   60.4013 C.3      35        0    0.0000
    213 H          54.3093   35.0698   61.3325 H        35        0    0.0000
    214 H          54.3976   35.0676   59.5745 H        35        0    0.0000
    215 H          53.1331   37.0979   59.3748 H        35        0    0.0000
    216 H          52.4427   36.9421   60.9864 H        35        0    0.0000
    217 C          54.4917   37.6976   60.9761 C.3      36        0    0.0000
    218 C          54.1102   39.1818   60.9490 C.3      36        0    0.0000
    219 H          54.7120   37.3846   62.0043 H        36        0    0.0000
    220 H          55.4071   37.5338   60.3940 H        36        0    0.0000
    221 H          53.8620   39.4877   59.9251 H        36        0    0.0000
    222 H          53.2113   39.3502   61.5548 H        36        0    0.0000
    223 C          55.2610   40.1009   61.4860 C.3      37        0    0.0000
    224 C          55.5299   41.2943   60.5627 C.3      37        0    0.0000
    225 H          54.9922   40.4545   62.4891 H        37        0    0.0000
    226 H          56.1714   39.4990   61.5976 H        37        0    0.0000
    227 H          55.4224   40.9904   59.5141 H        37        0    0.0000
    228 H          54.7872   42.0821   60.7401 H        37        0    0.0000
    229 C          56.9630   41.8950   60.7702 C.3      38        0    0.0000
    230 C          57.6225   42.2949   59.4458 C.3      38        0    0.0000
    231 H          56.8885   42.7670   61.4318 H        38        0    0.0000
    232 H          57.5839   41.1561   61.2917 H        38        0    0.0000
    233 H          57.4328   41.5281   58.6845 H        38        0    0.0000
    234 H          57.1804   43.2266   59.0716 H        38        0    0.0000
    235 C          59.1711   42.4924   59.5891 C.3      39        0    0.0000
    236 C          59.6670   43.7448   58.8580 C.3      39        0    0.0000
    237 H          59.4224   42.5549   60.6552 H        39        0    0.0000
    238 H          59.6788   41.6023   59.1974 H        39        0    0.0000
    239 H          59.6725   43.5706   57.7748 H        39        0    0.0000
    240 H          58.9818   44.5822   59.0389 H        39        0    0.0000
    241 C          61.1083   44.1647   59.3095 C.3      40        0    0.0000
    242 C          61.3030   45.6848   59.2909 C.3      40        0    0.0000
    243 H          61.2905   43.7745   60.3185 H        40        0    0.0000
    244 H          61.8401   43.6836   58.6488 H        40        0    0.0000
    245 H          61.3195   46.0493   58.2563 H        40        0    0.0000
    246 H          60.4573   46.1785   59.7854 H        40        0    0.0000
    247 C          62.6297   46.1226   60.0020 C.3      41        0    0.0000
    248 C          62.8371   47.6406   59.9611 C.3      41        0    0.0000
    249 H          62.6051   45.7741   61.0419 H        41        0    0.0000
    250 H          63.4739   45.6145   59.5194 H        41        0    0.0000
    251 H          62.8096   47.9962   58.9237 H        41        0    0.0000
    252 H          62.0192   48.1463   60.4892 H        41        0    0.0000
    253 C          64.1987   48.0718   60.6072 C.3      42        0    0.0000
    254 C          64.5106   49.5536   60.3702 C.3      42        0    0.0000
    255 H          64.1613   47.8628   61.6836 H        42        0    0.0000
    256 H          65.0001   47.4478   60.1928 H        42        0    0.0000
    257 H          64.2213   49.8407   59.3517 H        42        0    0.0000
    258 H          63.9194   50.1764   61.0530 H        42        0    0.0000
    259 C          66.0299   49.8811   60.5752 C.3      43        0    0.0000
    260 C          66.3660   51.3310   60.2093 C.3      43        0    0.0000
    261 H          66.2957   49.6858   61.6215 H        43        0    0.0000
    262 H          66.6258   49.1913   59.9647 H        43        0    0.0000
    263 H          66.9411   51.7993   61.0177 H        43        0    0.0000
    264 H          67.0015   51.3557   59.3154 H        43        0    0.0000
    265 C          65.0818   52.1888   59.9402 C.3      44        0    0.0000
    266 C          65.4178   53.5864   59.4083 C.3      44        0    0.0000
    267 H          64.4449   51.6564   59.2229 H        44        0    0.0000
    268 H          64.5083   52.2687   60.8719 H        44        0    0.0000
    269 H          66.2356   54.0250   59.9934 H        44        0    0.0000
    270 H          65.7723   53.5194   58.3723 H        44        0    0.0000
    271 C          64.1851   54.5536   59.4590 C.3      45        0    0.0000
    272 C          64.5343   55.9654   58.9756 C.3      45        0    0.0000
    273 H          63.3804   54.1333   58.8431 H        45        0    0.0000
    274 H          63.8072   54.5911   60.4882 H        45        0    0.0000
    275 H          65.4090   56.3435   59.5191 H        45        0    0.0000
    276 H          64.8090   55.9422   57.9137 H        45        0    0.0000
    277 C          63.3465   56.9701   59.1684 C.3      46        0    0.0000
    278 C          63.7424   58.4104   58.8249 C.3      46        0    0.0000
    279 H          62.5071   56.6504   58.5386 H        46        0    0.0000
    280 H          63.0002   56.9129   60.2078 H        46        0    0.0000
    281 H          64.6362   58.7001   59.3912 H        46        0    0.0000
    282 H          64.0047   58.4851   57.7623 H        46        0    0.0000
    283 C          62.5946   59.4321   59.1350 C.3      47        0    0.0000
    284 C          63.0675   60.8862   59.0311 C.3      47        0    0.0000
    285 H          61.7660   59.2553   58.4380 H        47        0    0.0000
    286 H          62.2070   59.2336   60.1420 H        47        0    0.0000
    287 H          64.0011   61.0191   59.5918 H        47        0    0.0000
    288 H          63.2894   61.1359   57.9861 H        47        0    0.0000
    289 C          62.0019   61.8980   59.5771 C.3      48        0    0.0000
    290 C          62.4942   63.3483   59.5181 C.3      48        0    0.0000
    291 H          61.0797   61.7898   58.9929 H        48        0    0.0000
    292 H          61.7537   61.6267   60.6107 H        48        0    0.0000
    293 H          61.6612   64.0363   59.7083 H        48        0    0.0000
    294 H          63.2359   63.5261   60.3066 H        48        0    0.0000
    295 C          63.1355   63.7021   58.1321 C.3      49        0    0.0000
    296 C          63.8814   65.0407   58.1620 C.3      49        0    0.0000
    297 H          63.8211   62.8958   57.8436 H        49        0    0.0000
    298 H          62.3440   63.7294   57.3729 H        49        0    0.0000
    299 H          64.9641   64.8673   58.1961 H        49        0    0.0000
    300 H          63.6813   65.6034   57.2418 H        49        0    0.0000
    301 C          63.4717   65.9217   59.3922 C.3      50        0    0.0000
    302 C          64.2693   67.2286   59.4620 C.3      50        0    0.0000
    303 H          62.3982   66.1390   59.3297 H        50        0    0.0000
    304 H          63.6224   65.3396   60.3098 H        50        0    0.0000
    305 H          63.5851   68.0839   59.5252 H        50        0    0.0000
    306 H          64.8819   67.2474   60.3719 H        50        0    0.0000
    307 C          65.2049   67.4208   58.2189 C.3      51        0    0.0000
    308 C          66.0170   68.7182   58.2982 C.3      51        0    0.0000
    309 H          65.8794   66.5585   58.1474 H        51        0    0.0000
    310 H          64.5906   67.4164   57.3100 H        51        0    0.0000
    311 H          65.5400   69.4186   58.9948 H        51        0    0.0000
    312 H          67.0184   68.5114   58.6956 H        51        0    0.0000
    313 C          66.1617   69.4147   56.9013 C.3      52        0    0.0000
    314 C          66.6832   70.8511   57.0197 C.3      52        0    0.0000
    315 H          66.8394   68.8187   56.2774 H        52        0    0.0000
    316 H          65.1857   69.4090   56.4005 H        52        0    0.0000
    317 H          66.5127   71.2307   58.0348 H        52        0    0.0000
    318 H          67.7674   70.8725   56.8532 H        52        0    0.0000
    319 C          65.9956   71.8190   55.9961 C.3      53        0    0.0000
    320 C          66.1966   73.2929   56.3653 C.3      53        0    0.0000
    321 H          66.4019   71.6229   54.9961 H        53        0    0.0000
    322 H          64.9247   71.5849   55.9526 H        53        0    0.0000
    323 H          65.8611   73.4721   57.3943 H        53        0    0.0000
    324 H          67.2635   73.5466   56.3331 H        53        0    0.0000
    325 C          65.4187   74.2574   55.4050 C.3      54        0    0.0000
    326 C          65.6652   75.7328   55.7389 C.3      54        0    0.0000
    327 H          65.7237   74.0495   54.3719 H        54        0    0.0000
    328 H          64.3471   74.0312   55.4687 H        54        0    0.0000
    329 H          65.0222   76.3710   55.1202 H        54        0    0.0000
    330 H          65.3954   75.9322   56.7835 H        54        0    0.0000
    331 C          67.1591   76.1513   55.5142 C.3      55        0    0.0000
    332 C          67.4054   77.6269   55.8473 C.3      55        0    0.0000
    333 H          67.8020   75.5135   56.1335 H        55        0    0.0000
    334 H          67.4291   75.9512   54.4699 H        55        0    0.0000
    335 H          67.3665   77.7790   56.9331 H        55        0    0.0000
    336 H          68.4109   77.9228   55.5236 H        55        0    0.0000
    337 C          66.3566   78.5726   55.1667 C.3      56        0    0.0000
    338 C          66.5774   80.0442   55.5336 C.3      56        0    0.0000
    339 H          66.4170   78.4429   54.0790 H        56        0    0.0000
    340 H          65.3494   78.2573   55.4661 H        56        0    0.0000
    341 H          65.9649   80.6882   54.8904 H        56        0    0.0000
    342 H          66.2515   80.2277   56.5649 H        56        0    0.0000
    343 C          68.0789   80.4725   55.3943 C.3      57        0    0.0000
    344 C          68.3738   81.7966   56.1076 C.3      57        0    0.0000
    345 H          68.7132   79.6758   55.8025 H        57        0    0.0000
    346 H          68.3253   80.5563   54.3286 H        57        0    0.0000
    347 H          67.8769   82.6238   55.5858 H        57        0    0.0000
    348 H          67.9647   81.7749   57.1253 H        57        0    0.0000
    349 C          69.9099   82.0993   56.1870 C.3      58        0    0.0000
    350 C          70.2671   83.4562   55.5702 C.3      58        0    0.0000
    351 H          70.2222   82.0701   57.2382 H        58        0    0.0000
    352 H          70.4553   81.2976   55.6739 H        58        0    0.0000
    353 H          69.4714   83.7806   54.8883 H        58        0    0.0000
    354 H          70.3395   84.2189   56.3554 H        58        0    0.0000
    355 C          71.6214   83.4124   54.7819 C.3      59        0    0.0000
    356 C          72.7281   84.2071   55.4839 C.3      59        0    0.0000
    357 H          71.9276   82.3657   54.6629 H        59        0    0.0000
    358 H          71.4560   83.8090   53.7725 H        59        0    0.0000
    359 H          72.6665   85.2659   55.2036 H        59        0    0.0000
    360 H          72.5924   84.1607   56.5715 H        59        0    0.0000
    361 C          74.1588   83.6731   55.1299 C.3      60        0    0.0000
    362 C          75.1095   84.7973   54.7041 C.3      60        0    0.0000
    363 H          74.5656   83.1467   56.0023 H        60        0    0.0000
    364 H          74.0706   82.9307   54.3270 H        60        0    0.0000
    365 H          74.6008   85.4772   54.0095 H        60        0    0.0000
    366 H          75.3982   85.3964   55.5766 H        60        0    0.0000
    367 C          76.4070   84.2494   54.0157 C.3      61        0    0.0000
    368 C          77.4079   85.3640   53.6923 C.3      61        0    0.0000
    369 H          76.8713   83.5069   54.6765 H        61        0    0.0000
    370 H          76.1235   83.7202   53.0974 H        61        0    0.0000
    371 H          78.3370   84.9329   53.2993 H        61        0    0.0000
    372 H          77.0053   86.0147   52.9061 H        61        0    0.0000
    373 C          77.7484   86.2393   54.9475 C.3      62        0    0.0000
    374 C          78.5887   87.4694   54.5872 C.3      62        0    0.0000
    375 H          76.8116   86.5507   55.4260 H        62        0    0.0000
    376 H          78.2836   85.6186   55.6768 H        62        0    0.0000
    377 H          79.0492   87.8881   55.4906 H        62        0    0.0000
    378 H          79.4101   87.1814   53.9194 H        62        0    0.0000
    379 C          77.7382   88.5863   53.8894 C.3      63        0    0.0000
    380 C          78.5390   89.8746   53.6706 C.3      63        0    0.0000
    381 H          77.3717   88.2034   52.9289 H        63        0    0.0000
    382 H          76.8536   88.7931   54.5043 H        63        0    0.0000
    383 H          78.4076   90.2289   52.6406 H        63        0    0.0000
    384 H          78.1616   90.6683   54.3273 H        63        0    0.0000
    385 C          80.0696   89.6767   53.9454 C.3      64        0    0.0000
    386 C          80.8461   90.9968   53.8851 C.3      64        0    0.0000
    387 H          80.1946   89.2114   54.9310 H        64        0    0.0000
    388 H          80.4724   88.9695   53.2098 H        64        0    0.0000
    389 H          80.9472   91.3264   52.8437 H        64        0    0.0000
    390 H          80.2921   91.7834   54.4122 H        64        0    0.0000
    391 C          82.2752   90.8748   54.5176 C.3      65        0    0.0000
    392 C          83.0969   92.1575   54.3479 C.3      65        0    0.0000
    393 H          82.1711   90.6329   55.5826 H        65        0    0.0000
    394 H          82.7970   90.0295   54.0520 H        65        0    0.0000
    395 H          82.4313   93.0074   54.1527 H        65        0    0.0000
    396 H          83.6347   92.3853   55.2766 H        65        0    0.0000
    397 C          84.1338   92.0483   53.1773 C.3      66        0    0.0000
    398 C          85.0719   93.2588   53.1175 C.3      66        0    0.0000
    399 H          84.7159   91.1272   53.3053 H        66        0    0.0000
    400 H          83.5889   91.9476   52.2305 H        66        0    0.0000
    401 H          85.8211   93.1156   52.3290 H        66        0    0.0000
    402 H          84.5058   94.1608   52.8540 H        66        0    0.0000
    403 C          85.8109   93.5055   54.4779 C.3      67        0    0.0000
    404 C          86.8011   94.6726   54.3977 C.3      67        0    0.0000
    405 H          85.0628   93.6997   55.2565 H        67        0    0.0000
    406 H          86.3353   92.5864   54.7671 H        67        0    0.0000
    407 H          86.2580   95.6205   54.2979 H        67        0    0.0000
    408 H          87.3813   94.7381   55.3265 H        67        0    0.0000
    409 C          87.7924   94.5288   53.1918 C.3      68        0    0.0000
    410 C          88.6195   95.7991   52.9651 C.3      68        0    0.0000
    411 H          88.4565   93.6761   53.3797 H        68        0    0.0000
    412 H          87.2180   94.2878   52.2887 H        68        0    0.0000
    413 H          88.0298   96.5375   52.4079 H        68        0    0.0000
    414 H          88.8726   96.2599   53.9280 H        68        0    0.0000
    415 C          89.9446   95.5127   52.1781 C.3      69        0    0.0000
    416 C          90.8155   96.7654   52.0316 C.3      69        0    0.0000
    417 H          90.5028   94.7256   52.7001 H        69        0    0.0000
    418 H          89.6890   95.1143   51.1884 H        69        0    0.0000
    419 H          90.3207   97.4928   51.3761 H        69        0    0.0000
    420 H          90.9398   97.2532   53.0063 H        69        0    0.0000
    421 C          92.2323   96.4388   51.4455 C.3      70        0    0.0000
    422 C          93.1070   97.6899   51.3091 C.3      70        0    0.0000
    423 H          92.7238   95.7053   52.0966 H        70        0    0.0000
    424 H          92.1080   95.9582   50.4672 H        70        0    0.0000
    425 H          92.6174   98.4216   50.6546 H        70        0    0.0000
    426 H          93.2277   98.1729   52.2867 H        70        0    0.0000
    427 C          94.5259   97.3624   50.7287 C.3      71        0    0.0000
    428 C          95.4028   98.6127   50.5983 C.3      71        0    0.0000
    429 H          95.0136   96.6272   51.3807 H        71        0    0.0000
    430 H          94.4053   96.8837   49.7490 H        71        0    0.0000
    431 H          94.9137   99.3491   49.9487 H        71        0    0.0000
    432 H          95.5259   99.0897   51.5785 H        71        0    0.0000
    433 C          96.8202   98.2858   50.0138 C.3      72        0    0.0000
    434 C          97.6980   99.5357   49.8858 C.3      72        0    0.0000
    435 H          97.3086   97.5480   50.6624 H        72        0    0.0000
    436 H          96.6972   97.8104   49.0328 H        72        0    0.0000
    437 H          97.2146  100.2691   49.2285 H        72        0    0.0000
    438 H          97.8122  100.0171   50.8649 H        72        0    0.0000
    439 C          99.1207   99.2066   49.3156 C.3      73        0    0.0000
    440 C         100.0008  100.4555   49.1936 C.3      73        0    0.0000
    441 H          99.6022   98.4696   49.9702 H        73        0    0.0000
    442 H          99.0067   98.7294   48.3343 H        73        0    0.0000
    443 H          99.5728  101.1467   48.4571 H        73        0    0.0000
    444 H         100.0276  100.9916   50.1504 H        73        0    0.0000
    445 C         101.4689  100.1084   48.7675 C.3      74        0    0.0000
    446 C         102.3489  101.3573   48.6453 C.3      74        0    0.0000
    447 H         101.8969   99.4172   49.5042 H        74        0    0.0000
    448 H         101.4420   99.5721   47.8108 H        74        0    0.0000
    449 H         101.7225  102.2460   48.4996 H        74        0    0.0000
    450 H         102.9087  101.5155   49.5754 H        74        0    0.0000
    451 C         103.3645  101.2544   47.4556 C.3      75        0    0.0000
    452 C         104.2362  102.5083   47.3259 C.3      75        0    0.0000
    453 H         103.9968  100.3706   47.6059 H        75        0    0.0000
    454 H         102.8052  101.0873   46.5267 H        75        0    0.0000
    455 H         104.9598  102.5502   48.1495 H        75        0    0.0000
    456 H         104.8183  102.4674   46.3969 H        75        0    0.0000
    457 C         103.3866  103.8258   47.3322 C.3      76        0    0.0000
    458 C         104.2521  105.0759   47.1397 C.3      76        0    0.0000
    459 H         102.6327  103.7641   46.5377 H        76        0    0.0000
    460 H         102.8398  103.8893   48.2811 H        76        0    0.0000
    461 H         104.7007  105.3737   48.0955 H        76        0    0.0000
    462 H         105.0822  104.8572   46.4566 H        76        0    0.0000
    463 C         103.4323  106.2838   46.5683 C.3      77        0    0.0000
    464 C         104.3307  107.4618   46.1758 C.3      77        0    0.0000
    465 H         102.8589  105.9417   45.6978 H        77        0    0.0000
    466 H         102.7012  106.6029   47.3215 H        77        0    0.0000
    467 H         104.8401  107.8583   47.0629 H        77        0    0.0000
    468 H         105.1149  107.1237   45.4871 H        77        0    0.0000
    469 C         103.5257  108.6218   45.4948 C.3      78        0    0.0000
    470 C         104.4403  109.7374   44.9770 C.3      78        0    0.0000
    471 H         102.9358  108.2054   44.6689 H        78        0    0.0000
    472 H         102.8097  109.0285   46.2197 H        78        0    0.0000
    473 H         103.8495  110.4884   44.4381 H        78        0    0.0000
    474 H         104.9155  110.2555   45.8192 H        78        0    0.0000
    475 C         105.5585  109.1938   44.0222 C.3      79        0    0.0000
    476 C         106.6158  110.2562   43.7020 C.3      79        0    0.0000
    477 H         106.0312  108.3221   44.4915 H        79        0    0.0000
    478 H         105.0904  108.8379   43.0961 H        79        0    0.0000
    479 H         107.3970  109.8283   43.0615 H        79        0    0.0000
    480 H         106.1621  111.0803   43.1376 H        79        0    0.0000
    481 C         107.2847  110.8373   44.9951 C.3      80        0    0.0000
    482 C         108.4321  111.8010   44.6727 C.3      80        0    0.0000
    483 H         106.5185  111.3502   45.5896 H        80        0    0.0000
    484 H         107.6535  110.0048   45.6072 H        80        0    0.0000
    485 H         108.0390  112.7082   44.1972 H        80        0    0.0000
    486 H         108.9271  112.1197   45.5984 H        80        0    0.0000
    487 C         109.5009  111.1561   43.7245 C.3      81        0    0.0000
    488 C         110.6253  112.1341   43.3663 C.3      81        0    0.0000
    489 H         109.9175  110.2671   44.2141 H        81        0    0.0000
    490 H         109.0004  110.8080   42.8124 H        81        0    0.0000
    491 H         110.2244  112.9689   42.7781 H        81        0    0.0000
    492 H         111.0514  112.5681   44.2794 H        81        0    0.0000
    493 C         111.7735  111.4463   42.5503 C.3      82        0    0.0000
    494 C         112.8625  112.4395   42.1297 C.3      82        0    0.0000
    495 H         112.2099  110.6455   43.1600 H        82        0    0.0000
    496 H         111.3393  110.9667   41.6643 H        82        0    0.0000
    497 H         112.4052  113.3734   41.7803 H        82        0    0.0000
    498 H         113.4886  112.6988   42.9924 H        82        0    0.0000
    499 C         113.7793  111.8696   40.9930 C.3      83        0    0.0000
    500 C         115.0773  112.6697   40.8378 C.3      83        0    0.0000
    501 H         114.0087  110.8203   41.2164 H        83        0    0.0000
    502 H         113.2187  111.8756   40.0500 H        83        0    0.0000
    503 H         114.8566  113.6743   40.4561 H        83        0    0.0000
    504 H         115.5566  112.8025   41.8156 H        83        0    0.0000
    505 C         116.0926  111.9725   39.8679 C.3      84        0    0.0000
    506 C         117.5244  111.9913   40.4144 C.3      84        0    0.0000
    507 H         115.7678  110.9382   39.6998 H        84        0    0.0000
    508 H         116.0549  112.4768   38.8944 H        84        0    0.0000
    509 H         118.0239  112.9254   40.1287 H        84        0    0.0000
    510 H         117.5089  111.9651   41.5111 H        84        0    0.0000
    511 C         118.3756  110.7829   39.8922 C.3      85        0    0.0000
    512 C         119.8797  111.0760   39.9220 C.3      85        0    0.0000
    513 H         118.1519  109.9014   40.5057 H        85        0    0.0000
    514 H         118.0592  110.5434   38.8694 H        85        0    0.0000
    515 H         120.0878  112.0265   39.4153 H        85        0    0.0000
    516 H         120.2202  111.1904   40.9586 H        85        0    0.0000
    517 C         120.7193  109.9435   39.2364 C.3      86        0    0.0000
    518 C         121.8030  110.5044   38.3089 C.3      86        0    0.0000
    519 H         121.1764  109.3212   40.0157 H        86        0    0.0000
    520 H         120.0405  109.2928   38.6714 H        86        0    0.0000
    521 H         121.4149  111.3694   37.7569 H        86        0    0.0000
    522 H         122.6546  110.8639   38.8997 H        86        0    0.0000
    523 C         122.3156  109.4376   37.2810 C.3      87        0    0.0000
    524 C         122.5710  110.0416   35.8957 C.3      87        0    0.0000
    525 H         123.2365  108.9857   37.6699 H        87        0    0.0000
    526 H         121.5751  108.6314   37.2091 H        87        0    0.0000
    527 H         121.6568  110.5158   35.5177 H        87        0    0.0000
    528 H         123.3303  110.8305   35.9635 H        87        0    0.0000
    529 C         123.0492  108.9679   34.8584 C.3      88        0    0.0000
    530 C         123.9973  109.5569   33.8080 C.3      88        0    0.0000
    531 H         123.5457  108.1517   35.3978 H        88        0    0.0000
    532 H         122.1692  108.5325   34.3689 H        88        0    0.0000
    533 H         123.4392  109.8123   32.8987 H        88        0    0.0000
    534 H         124.4377  110.4902   34.1801 H        88        0    0.0000
    535 C         125.1535  108.5679   33.4302 C.3      89        0    0.0000
    536 C         126.3167  109.2759   32.7268 C.3      89        0    0.0000
    537 H         125.5099  108.0752   34.3433 H        89        0    0.0000
    538 H         124.7474  107.7793   32.7847 H        89        0    0.0000
    539 H         126.6720  108.6695   31.8844 H        89        0    0.0000
    540 H         125.9771  110.2307   32.3066 H        89        0    0.0000
    541 C         127.5188  109.5490   33.6952 C.3      90        0    0.0000
    542 C         128.7598  110.0557   32.9521 C.3      90        0    0.0000
    543 H         127.2062  110.2824   34.4489 H        90        0    0.0000
    544 H         127.7553  108.6237   34.2351 H        90        0    0.0000
    545 H         128.4721  110.4684   31.9772 H        90        0    0.0000
    546 H         129.2275  110.8732   33.5147 H        90        0    0.0000
    547 C         129.8215  108.9242   32.7283 C.3      91        0    0.0000
    548 C         131.1194  109.4589   32.1130 C.3      91        0    0.0000
    549 H         130.0323  108.4417   33.6908 H        91        0    0.0000
    550 H         129.3864  108.1546   32.0787 H        91        0    0.0000
    551 H         130.9198  109.8776   31.1189 H        91        0    0.0000
    552 H         131.5167  110.2776   32.7257 H        91        0    0.0000
    553 C         132.2169  108.3473   31.9821 C.3      92        0    0.0000
    554 C         133.5871  108.8225   32.4778 C.3      92        0    0.0000
    555 H         131.8965  107.4653   32.5505 H        92        0    0.0000
    556 H         132.2834  108.0380   30.9317 H        92        0    0.0000
    557 H         134.0623  109.4568   31.7192 H        92        0    0.0000
    558 H         133.4684  109.4410   33.3760 H        92        0    0.0000
    559 C         134.5459  107.6277   32.8101 C.3      93        0    0.0000
    560 C         135.3636  107.8757   34.0825 C.3      93        0    0.0000
    561 H         133.9480  106.7144   32.9193 H        93        0    0.0000
    562 H         135.2168  107.4650   31.9575 H        93        0    0.0000
    563 H         136.1249  108.6435   33.8967 H        93        0    0.0000
    564 H         134.7141  108.2620   34.8778 H        93        0    0.0000
    565 C         136.0724  106.5752   34.5961 C.3      94        0    0.0000
    566 C         137.5947  106.7354   34.6738 C.3      94        0    0.0000
    567 H         135.6701  106.3200   35.5843 H        94        0    0.0000
    568 H         135.8153  105.7446   33.9271 H        94        0    0.0000
    569 H         137.9510  107.3530   33.8401 H        94        0    0.0000
    570 H         137.8710  107.2615   35.5960 H        94        0    0.0000
    571 C         138.3399  105.3568   34.6359 C.3      95        0    0.0000
    572 C         139.5829  105.3435   35.5325 C.3      95        0    0.0000
    573 H         137.6427  104.5693   34.9478 H        95        0    0.0000
    574 H         138.6216  105.1355   33.5990 H        95        0    0.0000
    575 H         140.3456  106.0204   35.1281 H        95        0    0.0000
    576 H         139.3292  105.7162   36.5327 H        95        0    0.0000
    577 C         140.2013  103.9096   35.6695 C.3      96        0    0.0000
    578 C         141.3466  103.8657   36.6870 C.3      96        0    0.0000
    579 H         139.4095  103.2096   35.9640 H        96        0    0.0000
    580 H         140.5599  103.5836   34.6852 H        96        0    0.0000
    581 H         142.1961  104.4568   36.3229 H        96        0    0.0000
    582 H         141.0276  104.3218   37.6324 H        96        0    0.0000
    583 C         141.8336  102.4029   36.9708 C.3      97        0    0.0000
    584 C         142.6579  102.3047   38.2591 C.3      97        0    0.0000
    585 H         140.9581  101.7447   37.0332 H        97        0    0.0000
    586 H         142.4281  102.0561   36.1164 H        97        0    0.0000
    587 H         143.2839  101.4040   38.2374 H        97        0    0.0000
    588 H         143.3399  103.1606   38.3355 H        97        0    0.0000
    589 C         141.7553  102.2620   39.5401 C.3      98        0    0.0000
    590 C         142.5783  102.3085   40.8323 C.3      98        0    0.0000
    591 H         141.0565  103.1071   39.5086 H        98        0    0.0000
    592 H         141.1473  101.3492   39.5141 H        98        0    0.0000
    593 H         143.0068  101.3205   41.0411 H        98        0    0.0000
    594 H         143.4222  102.9998   40.7161 H        98        0    0.0000
    595 C         141.7223  102.7590   42.0659 C.3      99        0    0.0000
    596 C         142.5541  102.8436   43.3504 C.3      99        0    0.0000
    597 H         141.2703  103.7340   41.8456 H        99        0    0.0000
    598 H         140.8948  102.0512   42.1996 H        99        0    0.0000
    599 H         141.8988  103.0223   44.2119 H        99        0    0.0000
    600 H         143.0616  101.8883   43.5335 H        99        0    0.0000
    601 C         143.6290  103.9830   43.2881 C.3     100        0    0.0000
    602 C         144.4552  104.0731   44.5759 C.3     100        0    0.0000
    603 H         144.2882  103.8008   42.4303 H       100        0    0.0000
    604 H         143.1222  104.9373   43.0988 H       100        0    0.0000
    605 H         145.3019  104.7558   44.4326 H       100        0    0.0000
    606 H         143.8454  104.4930   45.3855 H       100        0    0.0000
    607 C         145.0037  102.6761   45.0289 C.3     101        0    0.0000
    608 C         145.7597  102.7526   46.3599 C.3     101        0    0.0000
    609 H         144.1628  101.9766   45.1136 H       101        0    0.0000
    610 H         145.6622  102.2834   44.2442 H       101        0    0.0000
    611 H         145.0665  103.0032   47.1724 H       101        0    0.0000
    612 H         146.1910  101.7740   46.6043 H       101        0    0.0000
    613 C         146.9092  103.8181   46.3297 C.3     102        0    0.0000
    614 C         147.8272  103.7169   47.5529 C.3     102        0    0.0000
    615 H         147.4919  103.6838   45.4100 H       102        0    0.0000
    616 H         146.4626  104.8187   46.2764 H       102        0    0.0000
    617 H         148.6342  104.4564   47.4797 H       102        0    0.0000
    618 H         147.2656  103.9528   48.4653 H       102        0    0.0000
    619 C         148.4607  102.2910   47.7039 C.3     103        0    0.0000
    620 C         149.3089  102.1637   48.9741 C.3     103        0    0.0000
    621 H         147.6558  101.5456   47.7128 H       103        0    0.0000
    622 H         149.0745  102.0812   46.8191 H       103        0    0.0000
    623 H         150.0446  102.9763   49.0182 H       103        0    0.0000
    624 H         148.6734  102.2656   49.8626 H       103        0    0.0000
    625 C         150.0654  100.7927   49.0485 C.3     104        0    0.0000
    626 C         151.5299  100.9594   49.4687 C.3     104        0    0.0000
    627 H         149.5428  100.1385   49.7574 H       104        0    0.0000
    628 H         150.0086  100.3039   48.0680 H       104        0    0.0000
    629 H         151.9190  101.9182   49.1041 H       104        0    0.0000
    630 H         151.6069  100.9837   50.5627 H       104        0    0.0000
    631 C         152.4394   99.8048   48.9236 C.3     105        0    0.0000
    632 C         153.8073  100.3144   48.4562 C.3     105        0    0.0000
    633 H         152.5674   99.0532   49.7123 H       105        0    0.0000
    634 H         151.9204   99.3069   48.0952 H       105        0    0.0000
    635 H         153.7118  101.3287   48.0491 H       105        0    0.0000
    636 H         154.4953  100.3803   49.3082 H       105        0    0.0000
    637 C         154.4441   99.3890   47.3629 C.3     106        0    0.0000
    638 C         155.9678   99.2934   47.4985 C.3     106        0    0.0000
    639 H         153.9962   98.3905   47.4401 H       106        0    0.0000
    640 H         154.1783   99.7777   46.3720 H       106        0    0.0000
    641 H         156.4305  100.2497   47.2246 H       106        0    0.0000
    642 H         156.2410   99.0990   48.5430 H       106        0    0.0000
    643 C         156.5746   98.1623   46.5985 C.3     107        0    0.0000
    644 C         158.0995   98.0748   46.7249 C.3     107        0    0.0000
    645 H         156.1183   97.2047   46.8786 H       107        0    0.0000
    646 H         156.2938   98.3518   45.5551 H       107        0    0.0000
    647 H         158.5282   99.0810   46.8104 H       107        0    0.0000
    648 H         158.3708   97.5378   47.6423 H       107        0    0.0000
    649 C         158.7563   97.3480   45.5010 C.3     108        0    0.0000
    650 C         160.2849   97.3029   45.6041 C.3     108        0    0.0000
    651 H         158.3534   96.3296   45.4366 H       108        0    0.0000
    652 H         158.4564   97.8642   44.5806 H       108        0    0.0000
    653 H         160.6531   98.1945   46.1267 H       108        0    0.0000
    654 H         160.5962   96.4367   46.2010 H       108        0    0.0000
    655 C         160.9730   97.2212   44.1979 C.3     109        0    0.0000
    656 C         162.4845   96.9905   44.3034 C.3     109        0    0.0000
    657 H         160.5079   96.4106   43.6232 H       109        0    0.0000
    658 H         160.7716   98.1507   43.6511 H       109        0    0.0000
    659 H         162.9828   97.9090   44.6377 H       109        0    0.0000
    660 H         162.6962   96.2243   45.0595 H       109        0    0.0000
    661 C         163.1137   96.5420   42.9395 C.3     110        0    0.0000
    662 C         164.6278   96.3269   43.0411 C.3     110        0    0.0000
    663 H         162.6235   95.6171   42.6111 H       110        0    0.0000
    664 H         162.8919   97.3026   42.1807 H       110        0    0.0000
    665 H         165.1150   97.2435   43.3959 H       110        0    0.0000
    666 H         164.8481   95.5466   43.7801 H       110        0    0.0000
    667 C         165.2629   95.9161   41.6680 C.3     111        0    0.0000
    668 C         166.6292   96.5724   41.4405 C.3     111        0    0.0000
    669 H         165.3603   94.8238   41.6361 H       111        0    0.0000
    670 H         164.5730   96.1945   40.8618 H       111        0    0.0000
    671 H         166.5958   97.6258   41.7452 H       111        0    0.0000
    672 H         167.3884   96.0873   42.0664 H       111        0    0.0000
    673 C         167.0839   96.4938   39.9424 C.3     112        0    0.0000
    674 C         167.7283   97.7988   39.4617 C.3     112        0    0.0000
    675 H         167.7903   95.6620   39.8304 H       112        0    0.0000
    676 H         166.2127   96.2532   39.3205 H       112        0    0.0000
    677 H         167.4288   98.6287   40.1137 H       112        0    0.0000
    678 H         168.8209   97.7252   39.5272 H       112        0    0.0000
    679 C         167.3329   98.1480   37.9855 C.3     113        0    0.0000
    680 C         167.6586   99.6017   37.6253 C.3     113        0    0.0000
    681 H         167.8599   97.4653   37.3074 H       113        0    0.0000
    682 H         166.2605   97.9587   37.8524 H       113        0    0.0000
    683 H         167.3340  100.2709   38.4318 H       113        0    0.0000
    684 H         168.7436   99.7307   37.5266 H       113        0    0.0000
    685 C         166.9727  100.0508   36.2892 C.3     114        0    0.0000
    686 C         167.2599  101.5184   35.9535 C.3     114        0    0.0000
    687 H         167.3241   99.4032   35.4763 H       114        0    0.0000
    688 H         165.8910   99.8893   36.3754 H       114        0    0.0000
    689 H         168.3119  101.6399   35.6670 H       114        0    0.0000
    690 H         166.6600  101.8311   35.0899 H       114        0    0.0000
    691 C         166.9502  102.4745   37.1566 C.3     115        0    0.0000
    692 C         167.4797  103.8935   36.9220 C.3     115        0    0.0000
    693 H         165.8654  102.4997   37.3181 H       115        0    0.0000
    694 H         167.3945  102.0529   38.0668 H       115        0    0.0000
    695 H         166.7355  104.6312   37.2468 H       115        0    0.0000
    696 H         168.3782  104.0647   37.5278 H       115        0    0.0000
    697 C         167.8279  104.1563   35.4163 C.3     116        0    0.0000
    698 C         168.3407  105.5810   35.1788 C.3     116        0    0.0000
    699 H         168.5817  103.4268   35.0951 H       116        0    0.0000
    700 H         166.9329  103.9726   34.8091 H       116        0    0.0000
    701 H         169.3471  105.6937   35.6006 H       116        0    0.0000
    702 H         168.4267  105.7753   34.1025 H       116        0    0.0000
    703 C         167.4022  106.6639   35.8144 C.3     117        0    0.0000
    704 C         167.9446  108.0851   35.6266 C.3     117        0    0.0000
    705 H         166.4065  106.5784   35.3620 H       117        0    0.0000
    706 H         167.2827  106.4451   36.8828 H       117        0    0.0000
    707 H         167.1868  108.7165   35.1464 H       117        0    0.0000
    708 H         168.1594  108.5378   36.6025 H       117        0    0.0000
    709 C         169.2495  108.1130   34.7584 C.3     118        0    0.0000
    710 C         169.6171  109.5311   34.3077 C.3     118        0    0.0000
    711 H         170.0713  107.6786   35.3410 H       118        0    0.0000
    712 H         169.1066  107.4657   33.8842 H       118        0    0.0000
    713 H         168.7514  110.0120   33.8357 H       118        0    0.0000
    714 H         169.8833  110.1449   35.1771 H       118        0    0.0000
    715 C         170.8147  109.5413   33.2962 C.3     119        0    0.0000
    716 C         171.1743  110.9584   32.8362 C.3     119        0    0.0000
    717 H         171.6830  109.0684   33.7716 H       119        0    0.0000
    718 H         170.5521  108.9202   32.4310 H       119        0    0.0000
    719 H         172.0059  110.9222   32.1216 H       119        0    0.0000
    720 H         170.3249  111.4095   32.3084 H       119        0    0.0000
    721 C         171.5767  111.8874   34.0330 C.3     120        0    0.0000
    722 C         171.8979  113.3151   33.5776 C.3     120        0    0.0000
    723 H         170.7567  111.9005   34.7617 H       120        0    0.0000
    724 H         172.4444  111.4511   34.5431 H       120        0    0.0000
    725 H         171.2030  114.0242   34.0443 H       120        0    0.0000
    726 H         172.9052  113.5976   33.9077 H       120        0    0.0000
    727 C         171.8132  113.4752   32.0204 C.3     121        0    0.0000
    728 C         171.9191  114.9395   31.5804 C.3     121        0    0.0000
    729 H         172.6153  112.8851   31.5601 H       121        0    0.0000
    730 H         170.8660  113.0452   31.6718 H       121        0    0.0000
    731 H         172.6032  115.0274   30.7273 H       121        0    0.0000
    732 H         170.9414  115.3013   31.2388 H       121        0    0.0000
    733 C         172.4277  115.8712   32.7340 C.3     122        0    0.0000
    734 C         172.4223  117.3500   32.3314 C.3     122        0    0.0000
    735 H         171.7941  115.7193   33.6166 H       122        0    0.0000
    736 H         173.4416  115.5621   33.0172 H       122        0    0.0000
    737 H         171.4040  117.7533   32.3942 H       122        0    0.0000
    738 H         173.0354  117.9324   33.0303 H       122        0    0.0000
    739 C         172.9649  117.5719   30.8775 C.3     123        0    0.0000
    740 C         172.8934  119.0416   30.4488 C.3     123        0    0.0000
    741 H         174.0014  117.2158   30.8287 H       123        0    0.0000
    742 H         172.3851  116.9494   30.1848 H       123        0    0.0000
    743 H         173.4823  119.1964   29.5362 H       123        0    0.0000
    744 H         171.8586  119.3127   30.2057 H       123        0    0.0000
    745 C         173.4216  120.0114   31.5615 C.3     124        0    0.0000
    746 C         172.9705  121.4582   31.3330 C.3     124        0    0.0000
    747 H         173.0673  119.6565   32.5372 H       124        0    0.0000
    748 H         174.5172  119.9584   31.5858 H       124        0    0.0000
    749 H         173.0337  121.7080   30.2666 H       124        0    0.0000
    750 H         171.9185  121.5743   31.6219 H       124        0    0.0000
    751 C         173.8336  122.4848   32.1445 C.3     125        0    0.0000
    752 C         173.3387  123.9250   31.9710 C.3     125        0    0.0000
    753 H         173.8118  122.2048   33.2050 H       125        0    0.0000
    754 H         174.8781  122.4042   31.8187 H       125        0    0.0000
    755 H         173.9272  124.4344   31.1979 H       125        0    0.0000
    756 H         172.2973  123.9259   31.6259 H       125        0    0.0000
    757 C         173.4308  124.7492   33.3013 C.3     126        0    0.0000
    758 C         172.9945  126.2064   33.1132 C.3     126        0    0.0000
    759 H         172.8058  124.2645   34.0615 H       126        0    0.0000
    760 H         174.4631  124.7103   33.6706 H       126        0    0.0000
    761 H         173.1965  126.5297   32.0845 H       126        0    0.0000
    762 H         171.9119  126.2975   33.2652 H       126        0    0.0000
    763 C         173.7271  127.1782   34.1013 C.3     127        0    0.0000
    764 C         173.3160  128.6395   33.8904 C.3     127        0    0.0000
    765 H         173.5050  126.8696   35.1304 H       127        0    0.0000
    766 H         174.8104  127.0690   33.9665 H       127        0    0.0000
    767 H         172.2223  128.7246   33.8783 H       127        0    0.0000
    768 H         173.6705  129.2545   34.7269 H       127        0    0.0000
    769 C         173.8835  129.2293   32.5535 C.3     128        0    0.0000
    770 C         173.5732  130.7223   32.3993 C.3     128        0    0.0000
    771 H         174.9680  129.0659   32.5271 H       128        0    0.0000
    772 H         173.4598  128.6681   31.7114 H       128        0    0.0000
    773 H         173.9011  131.0749   31.4135 H       128        0    0.0000
    774 H         172.4899  130.8884   32.4489 H       128        0    0.0000
    775 C         174.2686  131.5908   33.5036 C.3     129        0    0.0000
    776 C         174.0837  133.0932   33.2631 C.3     129        0    0.0000
    777 H         173.8581  131.3132   34.4824 H       129        0    0.0000
    778 H         175.3369  131.3425   33.5281 H       129        0    0.0000
    779 H         173.0282  133.3664   33.3845 H       129        0    0.0000
    780 H         174.6455  133.6659   34.0113 H       129        0    0.0000
    781 C         174.5571  133.5286   31.8335 C.3     130        0    0.0000
    782 C         174.2206  134.9930   31.5312 C.3     130        0    0.0000
    783 H         175.6395  133.3675   31.7551 H       130        0    0.0000
    784 H         174.0864  132.8733   31.0902 H       130        0    0.0000
    785 H         173.2234  135.0643   31.0793 H       130        0    0.0000
    786 H         174.1862  135.5712   32.4629 H       130        0    0.0000
    787 C         175.2620  135.6545   30.5641 C.3     131        0    0.0000
    788 C         174.9535  137.1326   30.3013 C.3     131        0    0.0000
    789 H         176.2639  135.5509   30.9990 H       131        0    0.0000
    790 H         175.2699  135.0980   29.6187 H       131        0    0.0000
    791 H         175.7703  137.5917   29.7307 H       131        0    0.0000
    792 H         174.0494  137.2247   29.6867 H       131        0    0.0000
    793 C         174.7471  137.9415   31.6282 C.3     132        0    0.0000
    794 C         174.3876  139.4079   31.3646 C.3     132        0    0.0000
    795 H         173.9559  137.4601   32.2163 H       132        0    0.0000
    796 H         175.6651  137.8807   32.2257 H       132        0    0.0000
    797 H         173.3474  139.4850   31.0246 H       132        0    0.0000
    798 H         174.4587  139.9856   32.2945 H       132        0    0.0000
    799 C         175.3206  140.0643   30.2894 C.3     133        0    0.0000
    800 C         174.7419  141.3723   29.7389 C.3     133        0    0.0000
    801 H         176.3041  140.2480   30.7395 H       133        0    0.0000
    802 H         175.4767  139.3488   29.4725 H       133        0    0.0000
    803 H         174.1719  141.1752   28.8225 H       133        0    0.0000
    804 H         174.0383  141.8055   30.4606 H       133        0    0.0000
    805 C         175.8564  142.4287   29.4233 C.3     134        0    0.0000
    806 C         175.2753  143.7491   28.9057 C.3     134        0    0.0000
    807 H         176.4426  142.6068   30.3334 H       134        0    0.0000
    808 H         176.5457  142.0049   28.6825 H       134        0    0.0000
    809 H         174.8626  143.6094   27.8988 H       134        0    0.0000
    810 H         174.4439  144.0705   29.5451 H       134        0    0.0000
    811 C         176.3474  144.8919   28.8582 C.3     135        0    0.0000
    812 C         175.7633  146.2156   28.3526 C.3     135        0    0.0000
    813 H         176.7668  145.0252   29.8631 H       135        0    0.0000
    814 H         177.1745  144.5742   28.2112 H       135        0    0.0000
    815 H         176.5046  146.7446   27.7410 H       135        0    0.0000
    816 H         174.8998  146.0224   27.7040 H       135        0    0.0000
    817 C         175.3142  147.1534   29.5258 C.3     136        0    0.0000
    818 C         175.0043  148.5757   29.0463 C.3     136        0    0.0000
    819 H         174.4303  146.7180   30.0080 H       136        0    0.0000
    820 H         176.1073  147.1763   30.2835 H       136        0    0.0000
    821 H         175.8008  148.9302   28.3805 H       136        0    0.0000
    822 H         174.0774  148.5812   28.4594 H       136        0    0.0000
    823 C         174.8545  149.5846   30.2368 C.3     137        0    0.0000
    824 C         174.6267  151.0217   29.7552 C.3     137        0    0.0000
    825 H         174.0182  149.2630   30.8698 H       137        0    0.0000
    826 H         175.7572  149.5348   30.8582 H       137        0    0.0000
    827 H         175.4467  151.3319   29.0958 H       137        0    0.0000
    828 H         173.7062  151.0778   29.1609 H       137        0    0.0000
    829 C         174.5229  152.0375   30.9446 C.3     138        0    0.0000
    830 C         174.3183  153.4778   30.4623 C.3     138        0    0.0000
    831 H         173.6919  151.7370   31.5948 H       138        0    0.0000
    832 H         175.4361  151.9692   31.5487 H       138        0    0.0000
    833 H         175.1435  153.7745   29.8031 H       138        0    0.0000
    834 H         173.3991  153.5484   29.8676 H       138        0    0.0000
    835 C         174.2304  154.4957   31.6512 C.3     139        0    0.0000
    836 C         174.0822  155.9425   31.1675 C.3     139        0    0.0000
    837 H         173.3797  154.2230   32.2880 H       139        0    0.0000
    838 H         175.1313  154.3961   32.2693 H       139        0    0.0000
    839 H         174.9215  156.2080   30.5127 H       139        0    0.0000
    840 H         173.1695  156.0470   30.5679 H       139        0    0.0000
    841 C         174.0259  156.9634   32.3558 C.3     140        0    0.0000
    842 C         173.9837  158.4169   31.8714 C.3     140        0    0.0000
    843 H         173.1421  156.7451   32.9679 H       140        0    0.0000
    844 H         174.9010  156.8064   32.9986 H       140        0    0.0000
    845 H         174.9520  158.6973   31.4385 H       140        0    0.0000
    846 H         173.2386  158.5260   31.0736 H       140        0    0.0000
    847 C         173.6376  159.4183   33.0266 C.3     141        0    0.0000
    848 C         172.7735  160.5878   32.5422 C.3     141        0    0.0000
    849 H         173.1187  158.8724   33.8242 H       141        0    0.0000
    850 H         174.5724  159.7954   33.4597 H       141        0    0.0000
    851 H         173.1290  161.5267   32.9845 H       141        0    0.0000
    852 H         172.8648  160.6976   31.4544 H       141        0    0.0000
    853 C         171.2603  160.3990   32.9057 C.3     142        0    0.0000
    854 C         170.4033  161.5895   32.4614 C.3     142        0    0.0000
    855 H         170.8961  159.4771   32.4356 H       142        0    0.0000
    856 H         171.1723  160.2559   33.9898 H       142        0    0.0000
    857 H         170.5780  162.4466   33.1235 H       142        0    0.0000
    858 H         170.6941  161.9065   31.4522 H       142        0    0.0000
    859 C         168.8722  161.2530   32.4638 C.3     143        0    0.0000
    860 C         168.0128  162.4545   32.0554 C.3     143        0    0.0000
    861 H         168.6937  160.4133   31.7808 H       143        0    0.0000
    862 H         168.5871  160.9099   33.4661 H       143        0    0.0000
    863 H         168.1441  162.6650   30.9867 H       143        0    0.0000
    864 H         166.9503  162.2246   32.2030 H       143        0    0.0000
    865 C         168.3689  163.7445   32.8719 C.3     144        0    0.0000
    866 C         167.5295  164.9532   32.4435 C.3     144        0    0.0000
    867 H         168.2173  163.5405   33.9391 H       144        0    0.0000
    868 H         169.4361  163.9624   32.7412 H       144        0    0.0000
    869 H         167.8737  165.3243   31.4702 H       144        0    0.0000
    870 H         166.4812  164.6565   32.3146 H       144        0    0.0000
    871 C         167.5991  166.1237   33.4839 C.3     145        0    0.0000
    872 C         166.7497  167.3276   33.0616 C.3     145        0    0.0000
    873 H         167.2635  165.7502   34.4593 H       145        0    0.0000
    874 H         168.6465  166.4265   33.6059 H       145        0    0.0000
    875 H         167.1526  167.7677   32.1410 H       145        0    0.0000
    876 H         165.7261  167.0047   32.8348 H       145        0    0.0000
    877 C         166.6963  168.4350   34.1698 C.3     146        0    0.0000
    878 C         165.8398  169.6351   33.7510 C.3     146        0    0.0000
    879 H         166.2995  167.9933   35.0923 H       146        0    0.0000
    880 H         167.7195  168.7625   34.3921 H       146        0    0.0000
    881 H         166.1836  170.0235   32.7843 H       146        0    0.0000
    882 H         164.7973  169.3230   33.6124 H       146        0    0.0000
    883 C         165.8845  170.7939   34.8058 C.3     147        0    0.0000
    884 C         165.0119  171.9856   34.3967 C.3     147        0    0.0000
    885 H         165.5549  170.4018   35.7760 H       147        0    0.0000
    886 H         166.9254  171.1160   34.9334 H       147        0    0.0000
    887 H         163.9509  171.7333   34.5155 H       147        0    0.0000
    888 H         165.2084  172.8398   35.0565 H       147        0    0.0000
    889 C         165.2638  172.4248   32.9131 C.3     148        0    0.0000
    890 C         164.1719  173.3660   32.3926 C.3     148        0    0.0000
    891 H         166.2436  172.9144   32.8508 H       148        0    0.0000
    892 H         165.3190  171.5282   32.2834 H       148        0    0.0000
    893 H         163.1827  172.9933   32.6860 H       148        0    0.0000
    894 H         164.2823  174.3582   32.8474 H       148        0    0.0000
    895 C         164.2124  173.5178   30.8328 C.3     149        0    0.0000
    896 C         163.4082  174.7284   30.3460 C.3     149        0    0.0000
    897 H         165.2580  173.6077   30.5133 H       149        0    0.0000
    898 H         163.8218  172.5991   30.3779 H       149        0    0.0000
    899 H         162.3360  174.4967   30.3569 H       149        0    0.0000
    900 H         163.5544  175.5757   31.0273 H       149        0    0.0000
    901 C         163.8154  175.1686   28.8976 C.3     150        0    0.0000
    902 C         163.8786  176.6928   28.7500 C.3     150        0    0.0000
    903 H         164.7895  174.7264   28.6544 H       150        0    0.0000
    904 H         163.0932  174.7513   28.1850 H       150        0    0.0000
    905 H         163.7004  176.9773   27.7055 H       150        0    0.0000
    906 H         163.0844  177.1616   29.3441 H       150        0    0.0000
    907 C         165.2608  177.2768   29.2039 C.3     151        0    0.0000
    908 C         165.3056  178.8057   29.1064 C.3     151        0    0.0000
    909 H         165.4569  176.9598   30.2357 H       151        0    0.0000
    910 H         166.0515  176.8369   28.5836 H       151        0    0.0000
    911 H         164.9010  179.1330   28.1406 H       151        0    0.0000
    912 H         164.6697  179.2509   29.8815 H       151        0    0.0000
    913 C         166.7605  179.3685   29.2615 C.3     152        0    0.0000
    914 C         166.8293  180.8784   29.0075 C.3     152        0    0.0000
    915 H         167.1221  179.1402   30.2718 H       152        0    0.0000
    916 H         167.4208  178.8391   28.5635 H       152        0    0.0000
    917 H         166.3134  181.1263   28.0716 H       152        0    0.0000
    918 H         166.3079  181.4186   29.8073 H       152        0    0.0000
    919 C         168.3053  181.4002   28.9243 C.3     153        0    0.0000
    920 C         168.3980  182.9161   29.1306 C.3     153        0    0.0000
    921 H         168.9072  180.8802   29.6798 H       153        0    0.0000
    922 H         168.7222  181.1274   27.9469 H       153        0    0.0000
    923 H         167.9597  183.4400   28.2721 H       153        0    0.0000
    924 H         167.8150  183.2121   30.0115 H       153        0    0.0000
    925 C         169.8770  183.4009   29.3171 C.3     154        0    0.0000
    926 C         169.9842  184.5754   30.2959 C.3     154        0    0.0000
    927 H         170.4832  182.5584   29.6725 H       154        0    0.0000
    928 H         170.2808  183.6888   28.3385 H       154        0    0.0000
    929 H         169.5819  185.4865   29.8359 H       154        0    0.0000
    930 H         169.3767  184.3783   31.1879 H       154        0    0.0000
    931 C         171.4630  184.8448   30.7410 C.3     155        0    0.0000
    932 C         171.5780  186.0584   31.6699 C.3     155        0    0.0000
    933 H         171.8500  183.9491   31.2426 H       155        0    0.0000
    934 H         172.0796  184.9960   29.8464 H       155        0    0.0000
    935 H         170.7547  186.7578   31.4789 H       155        0    0.0000
    936 H         171.4858  185.7415   32.7162 H       155        0    0.0000
    937 C         172.9378  186.8175   31.4900 C.3     156        0    0.0000
    938 C         172.9861  188.1211   32.2945 C.3     156        0    0.0000
    939 H         173.7561  186.1549   31.7978 H       156        0    0.0000
    940 H         173.0869  187.0278   30.4236 H       156        0    0.0000
    941 H         172.9774  187.9006   33.3691 H       156        0    0.0000
    942 H         173.9225  188.6548   32.0900 H       156        0    0.0000
    943 C         171.7818  189.0686   31.9633 C.3     157        0    0.0000
    944 C         171.8691  190.4026   32.7129 C.3     157        0    0.0000
    945 H         171.7588  189.2461   30.8810 H       157        0    0.0000
    946 H         170.8469  188.5544   32.2182 H       157        0    0.0000
    947 H         171.2549  190.3647   33.6211 H       157        0    0.0000
    948 H         172.9010  190.5846   33.0379 H       157        0    0.0000
    949 C         171.3960  191.6106   31.8329 C.3     158        0    0.0000
    950 C         171.5992  192.9568   32.5369 C.3     158        0    0.0000
    951 H         171.9477  191.5948   30.8848 H       158        0    0.0000
    952 H         170.3366  191.4727   31.5833 H       158        0    0.0000
    953 H         171.3385  193.7789   31.8589 H       158        0    0.0000
    954 H         170.9267  193.0351   33.4002 H       158        0    0.0000
    955 C         173.0751  193.1543   33.0266 C.3     159        0    0.0000
    956 C         173.2402  194.4174   33.8789 C.3     159        0    0.0000
    957 H         173.3783  192.2704   33.6014 H       159        0    0.0000
    958 H         173.7347  193.2023   32.1513 H       159        0    0.0000
    959 H         173.4226  194.1438   34.9255 H       159        0    0.0000
    960 H         174.1173  194.9850   33.5442 H       159        0    0.0000
    961 C         171.9805  195.3480   33.8121 C.3     160        0    0.0000
    962 C         172.1736  196.6449   34.6058 C.3     160        0    0.0000
    963 H         171.7665  195.5786   32.7611 H       160        0    0.0000
    964 H         171.1131  194.7972   34.1966 H       160        0    0.0000
    965 H         171.3225  197.3172   34.4406 H       160        0    0.0000
    966 H         172.1994  196.4276   35.6808 H       160        0    0.0000
    967 C         173.4929  197.3931   34.2096 C.3     161        0    0.0000
    968 C         173.5977  198.7735   34.8672 C.3     161        0    0.0000
    969 H         174.3510  196.7732   34.4975 H       161        0    0.0000
    970 H         173.5285  197.4929   33.1177 H       161        0    0.0000
    971 H         173.6382  198.6683   35.9584 H       161        0    0.0000
    972 H         174.5301  199.2652   34.5632 H       161        0    0.0000
    973 C         172.3915  199.7026   34.4936 C.3     162        0    0.0000
    974 C         172.6447  201.1651   34.8758 C.3     162        0    0.0000
    975 H         172.2042  199.6226   33.4156 H       162        0    0.0000
    976 H         171.4905  199.3325   34.9982 H       162        0    0.0000
    977 H         172.5407  201.2938   35.9603 H       162        0    0.0000
    978 H         173.6741  201.4473   34.6224 H       162        0    0.0000
    979 C         171.6592  202.1472   34.1536 C.3     163        0    0.0000
    980 C         171.7376  203.5693   34.7195 C.3     163        0    0.0000
    981 H         171.8910  202.1557   33.0813 H       163        0    0.0000
    982 H         170.6378  201.7589   34.2520 H       163        0    0.0000
    983 H         171.7283  203.5388   35.8161 H       163        0    0.0000
    984 H         172.6842  204.0395   34.4255 H       163        0    0.0000
    985 C         170.5522  204.4702   34.2290 C.3     164        0    0.0000
    986 C         169.9202  205.2719   35.3722 C.3     164        0    0.0000
    987 H         170.9231  205.1507   33.4525 H       164        0    0.0000
    988 H         169.7964  203.8324   33.7541 H       164        0    0.0000
    989 H         170.1620  204.8072   36.3361 H       164        0    0.0000
    990 H         170.3391  206.2855   35.3973 H       164        0    0.0000
    991 C         168.3617  205.3724   35.2366 C.3     165        0    0.0000
    992 C         167.6499  205.2123   36.5845 C.3     165        0    0.0000
    993 H         168.1074  206.3415   34.7896 H       165        0    0.0000
    994 H         168.0173  204.6020   34.5355 H       165        0    0.0000
    995 H         167.9937  204.2988   37.0853 H       165        0    0.0000
    996 H         167.9047  206.0494   37.2462 H       165        0    0.0000
    997 C         166.0913  205.1474   36.4292 C.3     166        0    0.0000
    998 C         165.3759  206.1702   37.3186 C.3     166        0    0.0000
    999 H         165.8334  205.3185   35.3767 H       166        0    0.0000
   1000 H         165.7533  204.1332   36.6755 H       166        0    0.0000
   1001 H         165.0438  205.6928   38.2488 H       166        0    0.0000
   1002 H         166.0699  206.9700   37.6053 H       166        0    0.0000
   1003 C         164.1337  206.8099   36.6076 C.3     167        0    0.0000
   1004 C         163.4295  207.8465   37.4899 C.3     167        0    0.0000
   1005 H         164.4636  207.2753   35.6705 H       167        0    0.0000
   1006 H         163.4333  206.0114   36.3332 H       167        0    0.0000
   1007 H         163.3503  207.4734   38.5185 H       167        0    0.0000
   1008 H         164.0228  208.7683   37.5339 H       167        0    0.0000
   1009 C         161.9933  208.1945   36.9666 C.3     168        0    0.0000
   1010 C         161.0085  208.4653   38.1095 C.3     168        0    0.0000
   1011 H         162.0587  209.0715   36.3108 H       168        0    0.0000
   1012 H         161.6318  207.3643   36.3473 H       168        0    0.0000
   1013 H         161.2892  207.8805   38.9943 H       168        0    0.0000
   1014 H         161.0536  209.5215   38.4026 H       168        0    0.0000
   1015 C         159.5323  208.1121   37.7178 C.3     169        0    0.0000
   1016 C         158.7670  207.4538   38.8711 C.3     169        0    0.0000
   1017 H         159.0208  209.0300   37.4025 H       169        0    0.0000
   1018 H         159.5474  207.4448   36.8472 H       169        0    0.0000
   1019 H         159.4308  206.7800   39.4270 H       169        0    0.0000
   1020 H         158.4270  208.2177   39.5814 H       169        0    0.0000
   1021 C         157.5241  206.6396   38.3713 C.3     170        0    0.0000
   1022 C         157.1075  205.5481   39.3633 C.3     170        0    0.0000
   1023 H         156.6910  207.3335   38.2037 H       170        0    0.0000
   1024 H         157.7624  206.1926   37.3982 H       170        0    0.0000
   1025 H         157.9746  204.9310   39.6295 H       170        0    0.0000
   1026 H         156.7473  206.0034   40.2941 H       170        0    0.0000
   1027 C         155.9839  204.6192   38.7872 C.3     171        0    0.0000
   1028 C         155.4862  203.6010   39.8190 C.3     171        0    0.0000
   1029 H         155.1504  205.2441   38.4431 H       171        0    0.0000
   1030 H         156.3736  204.0992   37.9033 H       171        0    0.0000
   1031 H         156.3033  202.9286   40.1083 H       171        0    0.0000
   1032 H         155.1648  204.1172   40.7321 H       171        0    0.0000
   1033 C         154.2923  202.7415   39.2776 C.3     172        0    0.0000
   1034 C         153.5903  201.9559   40.3907 C.3     172        0    0.0000
   1035 H         153.5767  203.4058   38.7772 H       172        0    0.0000
   1036 H         154.6709  202.0527   38.5123 H       172        0    0.0000
   1037 H         154.2293  201.1309   40.7293 H       172        0    0.0000
   1038 H         153.4242  202.6032   41.2607 H       172        0    0.0000
   1039 C         152.2124  201.3700   39.9264 C.3     173        0    0.0000
   1040 C         151.4201  200.7590   41.0874 C.3     173        0    0.0000
   1041 H         151.6296  202.1699   39.4530 H       173        0    0.0000
   1042 H         152.3927  200.6121   39.1539 H       173        0    0.0000
   1043 H         151.9163  199.8475   41.4429 H       173        0    0.0000
   1044 H         151.3965  201.4557   41.9345 H       173        0    0.0000
   1045 C         149.9474  200.4071   40.6814 C.3     174        0    0.0000
   1046 C         149.1810  199.7185   41.8161 C.3     174        0    0.0000
   1047 H         149.4324  201.3293   40.3850 H       174        0    0.0000
   1048 H         149.9698  199.7601   39.7957 H       174        0    0.0000
   1049 H         149.8404  199.0198   42.3456 H       174        0    0.0000
   1050 H         148.8523  200.4616   42.5532 H       174        0    0.0000
   1051 C         147.9273  198.9342   41.2957 C.3     175        0    0.0000
   1052 C         147.0124  198.4780   42.4376 C.3     175        0    0.0000
   1053 H         147.3712  199.5767   40.6019 H       175        0    0.0000
   1054 H         148.2680  198.0666   40.7172 H       175        0    0.0000
   1055 H         147.5405  197.7623   43.0797 H       175        0    0.0000
   1056 H         146.7467  199.3333   43.0713 H       175        0    0.0000
   1057 C         145.6951  197.8097   41.9126 C.3     176        0    0.0000
   1058 C         144.4510  198.3235   42.6456 C.3     176        0    0.0000
   1059 H         145.6047  198.0037   40.8366 H       176        0    0.0000
   1060 H         145.7790  196.7222   42.0307 H       176        0    0.0000
   1061 H         144.1959  197.6488   43.4722 H       176        0    0.0000
   1062 H         144.6557  199.3047   43.0917 H       176        0    0.0000
   1063 C         143.2110  198.4493   41.6949 C.3     177        0    0.0000
   1064 C         141.9186  197.9606   42.3582 C.3     177        0    0.0000
   1065 H         143.1041  199.4977   41.3900 H       177        0    0.0000
   1066 H         143.4058  197.8739   40.7815 H       177        0    0.0000
   1067 H         142.0503  196.9367   42.7296 H       177        0    0.0000
   1068 H         141.6841  198.5841   43.2299 H       177        0    0.0000
   1069 C         140.6985  197.9882   41.3742 C.3     178        0    0.0000
   1070 C         139.3559  197.9589   42.1128 C.3     178        0    0.0000
   1071 H         140.7662  198.8894   40.7523 H       178        0    0.0000
   1072 H         140.7728  197.1302   40.6947 H       178        0    0.0000
   1073 H         139.2556  197.0216   42.6740 H       178        0    0.0000
   1074 H         139.3130  198.7723   42.8478 H       178        0    0.0000
   1075 C         138.1374  198.0958   41.1361 C.3     179        0    0.0000
   1076 C         137.0959  196.9916   41.3484 C.3     179        0    0.0000
   1077 H         137.6765  199.0806   41.2815 H       179        0    0.0000
   1078 H         138.5073  198.0704   40.1035 H       179        0    0.0000
   1079 H         136.6563  196.6991   40.3868 H       179        0    0.0000
   1080 H         137.5763  196.0956   41.7608 H       179        0    0.0000
   1081 C         135.9453  197.4382   42.3150 C.3     180        0    0.0000
   1082 C         134.7521  196.4768   42.2809 C.3     180        0    0.0000
   1083 H         136.3456  197.5049   43.3342 H       180        0    0.0000
   1084 H         135.6221  198.4489   42.0367 H       180        0    0.0000
   1085 H         134.5482  196.1669   41.2485 H       180        0    0.0000
   1086 H         134.9878  195.5646   42.8429 H       180        0    0.0000
   1087 C         133.4543  197.1191   42.8813 C.3     181        0    0.0000
   1088 C         132.2409  196.9450   41.9613 C.3     181        0    0.0000
   1089 H         133.2537  196.6631   43.8588 H       181        0    0.0000
   1090 H         133.6388  198.1852   43.0629 H       181        0    0.0000
   1091 H         132.5727  196.7393   40.9361 H       181        0    0.0000
   1092 H         131.6481  196.0788   42.2804 H       181        0    0.0000
   1093 C         131.3179  198.2121   41.9491 C.3     182        0    0.0000
   1094 C         129.8299  197.8472   41.9882 C.3     182        0    0.0000
   1095 H         131.5731  198.8437   42.8091 H       182        0    0.0000
   1096 H         131.5374  198.8008   41.0498 H       182        0    0.0000
   1097 H         129.4142  197.8537   40.9729 H       182        0    0.0000
   1098 H         129.7024  196.8283   42.3742 H       182        0    0.0000
   1099 C         128.9996  198.8332   42.8804 C.3     183        0    0.0000
   1100 C         127.5728  198.3312   43.1280 C.3     183        0    0.0000
   1101 H         129.5213  198.9701   43.8357 H       183        0    0.0000
   1102 H         128.9734  199.8152   42.3921 H       183        0    0.0000
   1103 H         127.0120  198.3116   42.1853 H       183        0    0.0000
   1104 H         127.5964  197.3000   43.5019 H       183        0    0.0000
   1105 C         126.7990  199.2246   44.1578 C.3     184        0    0.0000
   1106 C         125.3762  198.7157   44.4144 C.3     184        0    0.0000
   1107 H         127.3642  199.2512   45.0977 H       184        0    0.0000
   1108 H         126.7678  200.2539   43.7796 H       184        0    0.0000
   1109 H         125.4075  197.7987   45.0159 H       184        0    0.0000
   1110 H         124.8115  199.4548   44.9959 H       184        0    0.0000
   1111 C         124.6017  198.4209   43.0837 C.3     185        0    0.0000
   1112 C         123.1717  197.9325   43.3399 C.3     185        0    0.0000
   1113 H         124.5841  199.3336   42.4752 H       185        0    0.0000
   1114 H         125.1584  197.6701   42.5094 H       185        0    0.0000
   1115 H         123.1904  196.9243   43.7721 H       185        0    0.0000
   1116 H         122.6786  198.5811   44.0745 H       185        0    0.0000
   1117 C         122.3097  197.9052   42.0308 C.3     186        0    0.0000
   1118 C         120.8695  197.4512   42.2931 C.3     186        0    0.0000
   1119 H         122.3128  198.9073   41.5844 H       186        0    0.0000
   1120 H         122.7890  197.2358   41.3057 H       186        0    0.0000
   1121 H         120.8411  196.3671   42.4586 H       186        0    0.0000
   1122 H         120.4882  197.9198   43.2088 H       186        0    0.0000
   1123 C         119.9092  197.8064   41.1061 C.3     187        0    0.0000
   1124 C         118.4574  197.4089   41.3947 C.3     187        0    0.0000
   1125 H         119.9723  198.8840   40.9105 H       187        0    0.0000
   1126 H         120.2647  197.3004   40.2000 H       187        0    0.0000
   1127 H         118.3392  196.3222   41.3014 H       187        0    0.0000
   1128 H         118.1951  197.6667   42.4282 H       187        0    0.0000
   1129 C         117.4451  198.1122   40.4261 C.3     188        0    0.0000
   1130 C         115.9941  197.7071   40.7083 C.3     188        0    0.0000
   1131 H         117.5582  199.1990   40.5247 H       188        0    0.0000
   1132 H         117.7117  197.8602   39.3922 H       188        0    0.0000
   1133 H         115.6536  198.1585   41.6484 H       188        0    0.0000
   1134 H         115.3362  198.0902   39.9184 H       188        0    0.0000
   1135 C         115.8189  196.1521   40.8017 C.3     189        0    0.0000
   1136 C         114.3748  195.7483   41.1189 C.3     189        0    0.0000
   1137 H         116.1352  195.7029   39.8521 H       189        0    0.0000
   1138 H         116.4957  195.7658   41.5738 H       189        0    0.0000
   1139 H         113.9972  195.0653   40.3478 H       189        0    0.0000
   1140 H         114.3370  195.2020   42.0695 H       189        0    0.0000
   1141 C         113.4179  196.9867   41.2094 C.3     190        0    0.0000
   1142 C         111.9608  196.5784   41.4526 C.3     190        0    0.0000
   1143 H         113.7645  197.6431   42.0173 H       190        0    0.0000
   1144 H         113.4967  197.5633   40.2794 H       190        0    0.0000
   1145 H         111.5623  197.1088   42.3263 H       190        0    0.0000
   1146 H         111.3403  196.8708   40.5965 H       190        0    0.0000
   1147 C         111.8070  195.0356   41.6846 C.3     191        0    0.0000
   1148 C         110.3404  194.6123   41.8218 C.3     191        0    0.0000
   1149 H         112.2753  194.5037   40.8472 H       191        0    0.0000
   1150 H         112.3651  194.7564   42.5869 H       191        0    0.0000
   1151 H         109.9389  194.9532   42.7842 H       191        0    0.0000
   1152 H         109.7361  195.0907   41.0411 H       191        0    0.0000
   1153 C         110.1585  193.0585   41.7204 C.3     192        0    0.0000
   1154 C         108.6906  192.6361   41.8459 C.3     192        0    0.0000
   1155 H         110.5678  192.7165   40.7617 H       192        0    0.0000
   1156 H         110.7561  192.5806   42.5066 H       192        0    0.0000
   1157 H         108.5854  191.5685   41.6163 H       192        0    0.0000
   1158 H         108.3472  192.7715   42.8790 H       192        0    0.0000
   1159 C         107.7536  193.4530   40.8909 C.3     193        0    0.0000
   1160 C         106.2857  193.0304   41.0162 C.3     193        0    0.0000
   1161 H         107.8586  194.5206   41.1206 H       193        0    0.0000
   1162 H         108.0971  193.3178   39.8578 H       193        0    0.0000
   1163 H         105.8731  193.3819   41.9700 H       193        0    0.0000
   1164 H         105.6901  193.4997   40.2233 H       193        0    0.0000
   1165 C         106.1057  191.4755   40.9302 C.3     194        0    0.0000
   1166 C         104.8440  190.9958   41.6562 C.3     194        0    0.0000
   1167 H         106.0664  191.1820   39.8739 H       194        0    0.0000
   1168 H         106.9928  190.9926   41.3585 H       194        0    0.0000
   1169 H         103.9539  191.4498   41.2034 H       194        0    0.0000
   1170 H         104.7355  189.9099   41.5441 H       194        0    0.0000
   1171 C         104.8683  191.3461   43.1840 C.3     195        0    0.0000
   1172 C         103.6435  190.7985   43.9250 C.3     195        0    0.0000
   1173 H         105.7873  190.9407   43.6252 H       195        0    0.0000
   1174 H         104.9194  192.4362   43.2961 H       195        0    0.0000
   1175 H         102.8339  190.5939   43.2136 H       195        0    0.0000
   1176 H         103.8902  189.8432   44.4048 H       195        0    0.0000
   1177 C         103.1171  191.7917   45.0177 C.3     196        0    0.0000
   1178 C         101.8921  191.2442   45.7585 C.3     196        0    0.0000
   1179 H         103.9267  191.9960   45.7293 H       196        0    0.0000
   1180 H         102.8707  192.7470   44.5380 H       196        0    0.0000
   1181 H         100.9733  191.6498   45.3171 H       196        0    0.0000
   1182 H         101.8408  190.1541   45.6464 H       196        0    0.0000
   1183 C         101.9161  191.5945   47.2863 C.3     197        0    0.0000
   1184 C         100.8419  190.8355   48.0732 C.3     197        0    0.0000
   1185 H         102.9106  191.3619   47.6868 H       197        0    0.0000
   1186 H         101.7744  192.6760   47.4034 H       197        0    0.0000
   1187 H          99.9556  191.4682   48.2062 H       197        0    0.0000
   1188 H         100.5167  189.9521   47.5098 H       197        0    0.0000
   1189 C         101.3513  190.3765   49.4829 C.3     198        0    0.0000
   1190 C         100.3701  189.4221   50.1726 C.3     198        0    0.0000
   1191 H         102.3281  189.8912   49.3651 H       198        0    0.0000
   1192 H         101.5137  191.2643   50.1065 H       198        0    0.0000
   1193 H          99.4860  189.9743   50.5147 H       198        0    0.0000
   1194 H         100.0143  188.6684   49.4593 H       198        0    0.0000
   1195 C         101.0157  188.6913   51.4000 C.3     199        0    0.0000
   1196 C         100.0358  187.7338   52.0871 C.3     199        0    0.0000
   1197 H         101.9016  188.1417   51.0584 H       199        0    0.0000
   1198 H         101.3688  189.4450   52.1147 H       199        0    0.0000
   1199 H         100.5643  187.1246   52.8308 H       199        0    0.0000
   1200 H          99.2725  188.3035   52.6315 H       199        0    0.0000
   1201 C          99.3231  186.7803   51.0671 C.3     200        0    0.0000
   1202 C          98.1294  186.0495   51.6917 C.3     200        0    0.0000
   1203 H          98.9928  187.3701   50.2031 H       200        0    0.0000
   1204 H         100.0544  186.0538   50.6917 H       200        0    0.0000
   1205 H          97.1917  186.5268   51.3812 H       200        0    0.0000
   1206 H          98.0909  185.0145   51.3301 H       200        0    0.0000
   1207 C          98.1947  186.0355   53.2580 C.3     201        0    0.0000
   1208 C          97.1000  185.1595   53.8771 C.3     201        0    0.0000
   1209 H          99.1840  185.6761   53.5674 H       201        0    0.0000
   1210 H          98.1047  187.0655   53.6249 H       201        0    0.0000
   1211 H          97.5429  184.2540   54.3102 H       201        0    0.0000
   1212 H          96.6101  185.6950   54.6998 H       201        0    0.0000
   1213 C          96.0124  184.7387   52.8295 C.3     202        0    0.0000
   1214 C          95.0777  183.6499   53.3680 C.3     202        0    0.0000
   1215 H          95.4326  185.6258   52.5460 H       202        0    0.0000
   1216 H          96.5150  184.3869   51.9200 H       202        0    0.0000
   1217 H          94.5025  184.0352   54.2190 H       202        0    0.0000
   1218 H          94.3494  183.3651   52.5986 H       202        0    0.0000
   1219 C          95.8581  182.3691   53.8240 C.3     203        0    0.0000
   1220 C          95.0279  181.4864   54.7624 C.3     203        0    0.0000
   1221 H          96.1528  181.7991   52.9342 H       203        0    0.0000
   1222 H          96.7857  182.6785   54.3214 H       203        0    0.0000
   1223 H          94.3353  182.1053   55.3462 H       203        0    0.0000
   1224 H          94.4127  180.7908   54.1782 H       203        0    0.0000
   1225 C          95.9238  180.6618   55.7498 C.3     204        0    0.0000
   1226 C          95.3232  179.2886   56.0701 C.3     204        0    0.0000
   1227 H          96.9205  180.5426   55.3072 H       204        0    0.0000
   1228 H          96.0561  181.2392   56.6732 H       204        0    0.0000
   1229 H          94.5343  179.3900   56.8256 H       204        0    0.0000
   1230 H          94.8497  178.8670   55.1748 H       204        0    0.0000
   1231 C          96.3996  178.2775   56.5961 C.3     205        0    0.0000
   1232 C          95.8052  176.8947   56.8854 C.3     205        0    0.0000
   1233 H          97.2005  178.1944   55.8511 H       205        0    0.0000
   1234 H          96.8562  178.6883   57.5051 H       205        0    0.0000
   1235 H          95.0715  176.9632   57.6981 H       205        0    0.0000
   1236 H          95.2659  176.5253   56.0044 H       205        0    0.0000
   1237 C          96.9024  175.8476   57.2819 C.3     206        0    0.0000
   1238 C          96.3029  174.4787   57.6221 C.3     206        0    0.0000
   1239 H          97.6148  175.7509   56.4533 H       206        0    0.0000
   1240 H          97.4670  176.2346   58.1393 H       206        0    0.0000
   1241 H          95.4460  174.6003   58.2962 H       206        0    0.0000
   1242 H          95.9223  173.9981   56.7123 H       206        0    0.0000
   1243 C          97.3466  173.5246   58.2987 C.3     207        0    0.0000
   1244 C          96.7636  172.1368   58.5869 C.3     207        0    0.0000
   1245 H          98.2219  173.4362   57.6432 H       207        0    0.0000
   1246 H          97.6961  173.9866   59.2303 H       207        0    0.0000
   1247 H          95.9000  172.2235   59.2579 H       207        0    0.0000
   1248 H          96.3965  171.6827   57.6581 H       207        0    0.0000
   1249 C          97.8153  171.1742   59.2386 C.3     208        0    0.0000
   1250 C          97.3143  169.7273   59.3072 C.3     208        0    0.0000
   1251 H          98.7458  171.2230   58.6597 H       208        0    0.0000
   1252 H          98.0515  171.5386   60.2461 H       208        0    0.0000
   1253 H          96.4031  169.6732   59.9158 H       208        0    0.0000
   1254 H          97.0445  169.3748   58.3040 H       208        0    0.0000
   1255 C          98.3851  168.7559   59.9131 C.3     209        0    0.0000
   1256 C          97.7462  167.5864   60.6701 C.3     209        0    0.0000
   1257 H          99.0187  168.3774   59.1014 H       209        0    0.0000
   1258 H          99.0398  169.3256   60.5843 H       209        0    0.0000
   1259 H          97.0227  167.9634   61.4035 H       209        0    0.0000
   1260 H          97.1865  166.9489   59.9744 H       209        0    0.0000
   1261 C          98.8102  166.7088   61.4151 C.3     210        0    0.0000
   1262 C          98.6910  165.2232   61.0576 C.3     210        0    0.0000
   1263 H          99.8121  167.0773   61.1623 H       210        0    0.0000
   1264 H          98.6875  166.8465   62.4966 H       210        0    0.0000
   1265 H          98.0502  164.7112   61.7862 H       210        0    0.0000
   1266 H          98.2085  165.1093   60.0789 H       210        0    0.0000
   1267 C         100.0852  164.5074   61.0199 C.3     211        0    0.0000
   1268 C         100.2144  163.4299   62.1022 C.3     211        0    0.0000
   1269 H         100.2275  164.0625   60.0272 H       211        0    0.0000
   1270 H         100.8729  165.2609   61.1433 H       211        0    0.0000
   1271 H          99.6497  163.7244   62.9954 H       211        0    0.0000
   1272 H          99.7768  162.4878   61.7492 H       211        0    0.0000
   1273 C         101.7062  163.1728   62.5094 C.3     212        0    0.0000
   1274 C         102.2155  161.8124   62.0207 C.3     212        0    0.0000
   1275 H         102.3286  163.9773   62.0984 H       212        0    0.0000
   1276 H         101.7905  163.2359   63.6014 H       212        0    0.0000
   1277 H         102.1389  161.0708   62.8256 H       212        0    0.0000
   1278 H         101.5881  161.4495   61.1972 H       212        0    0.0000
   1279 C         103.7037  161.8758   61.5320 C.3     213        0    0.0000
   1280 C         104.1567  160.5656   60.8784 C.3     213        0    0.0000
   1281 H         103.8078  162.7059   60.8223 H       213        0    0.0000
   1282 H         104.3475  162.1111   62.3886 H       213        0    0.0000
   1283 H         104.2789  160.7071   59.7974 H       213        0    0.0000
   1284 H         105.1377  160.2693   61.2702 H       213        0    0.0000
   1285 C         103.1408  159.3971   61.1235 C.3     214        0    0.0000
   1286 C         103.5183  158.1278   60.3517 C.3     214        0    0.0000
   1287 H         103.0987  159.1848   62.1990 H       214        0    0.0000
   1288 H         102.1386  159.7323   60.8290 H       214        0    0.0000
   1289 H         103.4240  158.3017   59.2726 H       214        0    0.0000
   1290 H         104.5686  157.8721   60.5390 H       214        0    0.0000
   1291 C         102.6221  156.9038   60.7466 C.3     215        0    0.0000
   1292 C         103.2794  155.5649   60.3939 C.3     215        0    0.0000
   1293 H         102.4157  156.9494   61.8231 H       215        0    0.0000
   1294 H         101.6552  156.9942   60.2363 H       215        0    0.0000
   1295 H         102.5242  154.8617   60.0213 H       215        0    0.0000
   1296 H         104.0064  155.7045   59.5843 H       215        0    0.0000
   1297 C         104.0087  154.9192   61.6222 C.3     216        0    0.0000
   1298 C         104.6427  153.5673   61.2765 C.3     216        0    0.0000
   1299 H         104.7774  155.6141   61.9823 H       216        0    0.0000
   1300 H         103.2861  154.7980   62.4388 H       216        0    0.0000
   1301 H         104.1725  153.1503   60.3773 H       216        0    0.0000
   1302 H         105.7065  153.6994   61.0433 H       216        0    0.0000
   1303 C         104.5063  152.5311   62.4448 C.3     217        0    0.0000
   1304 C         104.8104  151.0994   61.9898 C.3     217        0    0.0000
   1305 H         105.1864  152.8206   63.2555 H       217        0    0.0000
   1306 H         103.4890  152.5885   62.8514 H       217        0    0.0000
   1307 H         105.7014  151.0894   61.3499 H       217        0    0.0000
   1308 H         105.0392  150.4694   62.8583 H       217        0    0.0000
   1309 C         103.6154  150.4598   61.2023 C.3     218        0    0.0000
   1310 C         103.8126  148.9583   60.9662 C.3     218        0    0.0000
   1311 H         102.6888  150.6338   61.7633 H       218        0    0.0000
   1312 H         103.5053  150.9802   60.2428 H       218        0    0.0000
   1313 H         104.5642  148.7962   60.1837 H       218        0    0.0000
   1314 H         104.1976  148.4818   61.8763 H       218        0    0.0000
   1315 C         102.4826  148.2433   60.5455 C.3     219        0    0.0000
   1316 C         102.6121  146.7163   60.5670 C.3     219        0    0.0000
   1317 H         101.6802  148.5623   61.2222 H       219        0    0.0000
   1318 H         102.2011  148.5828   59.5409 H       219        0    0.0000
   1319 H         101.7319  146.2575   60.0998 H       219        0    0.0000
   1320 H         103.4815  146.4041   59.9752 H       219        0    0.0000
   1321 C         102.7629  146.1533   62.0222 C.3     220        0    0.0000
   1322 C         103.0408  144.6461   62.0360 C.3     220        0    0.0000
   1323 H         103.5757  146.6903   62.5267 H       220        0    0.0000
   1324 H         101.8454  146.3717   62.5827 H       220        0    0.0000
   1325 H         102.1020  144.0916   62.1576 H       220        0    0.0000
   1326 H         103.4690  144.3337   61.0755 H       220        0    0.0000
   1327 C         104.0237  144.2337   63.1855 C.3     221        0    0.0000
   1328 C         104.2618  142.7203   63.2311 C.3     221        0    0.0000
   1329 H         104.9755  144.7601   63.0427 H       221        0    0.0000
   1330 H         103.6133  144.5789   64.1425 H       221        0    0.0000
   1331 H         104.8535  142.4062   62.3623 H       221        0    0.0000
   1332 H         104.8463  142.4582   64.1217 H       221        0    0.0000
   1333 C         102.9210  141.9083   63.2496 C.3     222        0    0.0000
   1334 C         103.1574  140.3995   63.3790 C.3     222        0    0.0000
   1335 H         102.3030  142.2650   64.0829 H       222        0    0.0000
   1336 H         102.3641  142.1242   62.3294 H       222        0    0.0000
   1337 H         102.7458  140.0343   64.3280 H       222        0    0.0000
   1338 H         102.6281  139.8659   62.5798 H       222        0    0.0000
   1339 C         104.6791  140.0287   63.3123 C.3     223        0    0.0000
   1340 C         104.9379  138.5665   63.6916 C.3     223        0    0.0000
   1341 H         105.0467  140.2248   62.2974 H       223        0    0.0000
   1342 H         105.2353  140.6954   63.9830 H       223        0    0.0000
   1343 H         104.2401  138.2527   64.4779 H       223        0    0.0000
   1344 H         104.7528  137.9155   62.8282 H       223        0    0.0000
   1345 C         106.4041  138.3338   64.1949 C.3     224        0    0.0000
   1346 C         106.6882  136.8576   64.4938 C.3     224        0    0.0000
   1347 H         107.1022  138.7046   63.4342 H       224        0    0.0000
   1348 H         106.5691  138.9384   65.0953 H       224        0    0.0000
   1349 H         107.7494  136.7203   64.7361 H       224        0    0.0000
   1350 H         106.1197  136.5361   65.3753 H       224        0    0.0000
   1351 C         106.3206  135.9258   63.2880 C.3     225        0    0.0000
   1352 C         106.5797  134.4471   63.5966 C.3     225        0    0.0000
   1353 H         105.2643  136.0774   63.0332 H       225        0    0.0000
   1354 H         106.9036  136.2350   62.4116 H       225        0    0.0000
   1355 H         105.8196  134.0690   64.2915 H       225        0    0.0000
   1356 H         106.4930  133.8507   62.6799 H       225        0    0.0000
   1357 C         107.9978  134.2102   64.2213 C.3     226        0    0.0000
   1358 C         108.3197  132.7205   64.3833 C.3     226        0    0.0000
   1359 H         108.7500  134.6903   63.5831 H       226        0    0.0000
   1360 H         108.0437  134.7130   65.1952 H       226        0    0.0000
   1361 H         108.0988  132.3972   65.4081 H       226        0    0.0000
   1362 H         107.6815  132.1234   63.7201 H       226        0    0.0000
   1363 C         109.8205  132.3988   64.0644 C.3     227        0    0.0000
   1364 C         110.1408  130.9081   64.2205 C.3     227        0    0.0000
   1365 H         110.0426  132.7262   63.0412 H       227        0    0.0000
   1366 H         110.4586  132.9924   64.7307 H       227        0    0.0000
   1367 H         109.7898  130.5480   65.1954 H       227        0    0.0000
   1368 H         109.6065  130.3268   63.4588 H       227        0    0.0000
   1369 C         111.6756  130.6141   64.0959 C.3     228        0    0.0000
   1370 C         112.0198  129.1634   64.4507 C.3     228        0    0.0000
   1371 H         111.9962  130.8368   63.0706 H       228        0    0.0000
   1372 H         112.2219  131.3019   64.7532 H       228        0    0.0000
   1373 H         111.6072  128.9088   65.4348 H       228        0    0.0000
   1374 H         111.5568  128.4795   63.7285 H       228        0    0.0000
   1375 C         113.5662  128.9072   64.4695 C.3     229        0    0.0000
   1376 C         113.9268  127.5790   65.1441 C.3     229        0    0.0000
   1377 H         113.9391  128.9185   63.4378 H       229        0    0.0000
   1378 H         114.0561  129.7390   64.9907 H       229        0    0.0000
   1379 H         113.4674  127.5256   66.1389 H       229        0    0.0000
   1380 H         113.5215  126.7405   64.5644 H       229        0    0.0000
   1381 C         115.4759  127.3891   65.2920 C.3     230        0    0.0000
   1382 C         115.8335  126.1198   66.0729 C.3     230        0    0.0000
   1383 H         115.9249  127.3544   64.2917 H       230        0    0.0000
   1384 H         115.8938  128.2702   65.7946 H       230        0    0.0000
   1385 H         115.3466  126.1331   67.0559 H       230        0    0.0000
   1386 H         115.4553  125.2349   65.5461 H       230        0    0.0000
   1387 C         117.3799  125.9637   66.2771 C.3     231        0    0.0000
   1388 C         117.7297  124.7755   67.1798 C.3     231        0    0.0000
   1389 H         117.8558  125.8436   65.2959 H       231        0    0.0000
   1390 H         117.7752  126.8922   66.7074 H       231        0    0.0000
   1391 H         117.1511  124.8270   68.1105 H       231        0    0.0000
   1392 H         117.4521  123.8350   66.6880 H       231        0    0.0000
   1393 C         119.2557  124.7285   67.5354 C.3     232        0    0.0000
   1394 C         119.5915  123.5896   68.5045 C.3     232        0    0.0000
   1395 H         119.8315  124.6157   66.6084 H       232        0    0.0000
   1396 H         119.5469  125.6920   67.9719 H       232        0    0.0000
   1397 H         118.9844  123.6782   69.4139 H       232        0    0.0000
   1398 H         119.3398  122.6230   68.0506 H       232        0    0.0000
   1399 C         121.1065  123.5795   68.9073 C.3     233        0    0.0000
   1400 C         121.4485  122.4223   69.8522 C.3     233        0    0.0000
   1401 H         121.7141  123.5134   67.9963 H       233        0    0.0000
   1402 H         121.3527  124.5377   69.3814 H       233        0    0.0000
   1403 H         122.1156  122.7725   70.6497 H       233        0    0.0000
   1404 H         120.5382  122.0547   70.3418 H       233        0    0.0000
   1405 C         122.1375  121.2288   69.1050 C.3     234        0    0.0000
   1406 C         122.5172  120.0891   70.0568 C.3     234        0    0.0000
   1407 H         121.4577  120.8588   68.3274 H       234        0    0.0000
   1408 H         123.0313  121.6026   68.5902 H       234        0    0.0000
   1409 H         122.8066  119.2002   69.4827 H       234        0    0.0000
   1410 H         123.3904  120.3749   70.6563 H       234        0    0.0000
   1411 C         121.3439  119.7065   71.0234 C.3     235        0    0.0000
   1412 C         121.7313  118.5826   71.9907 C.3     235        0    0.0000
   1413 H         121.0433  120.5995   71.5854 H       235        0    0.0000
   1414 H         120.4761  119.4045   70.4240 H       235        0    0.0000
   1415 H         122.4171  118.9653   72.7568 H       235        0    0.0000
   1416 H         120.8416  118.2172   72.5185 H       235        0    0.0000
   1417 C         122.4146  117.3771   71.2577 C.3     236        0    0.0000
   1418 C         122.8134  116.2586   72.2267 C.3     236        0    0.0000
   1419 H         121.7252  116.9885   70.4979 H       236        0    0.0000
   1420 H         123.2990  117.7441   70.7223 H       236        0    0.0000
   1421 H         123.1220  115.3675   71.6661 H       236        0    0.0000
   1422 H         123.6788  116.5699   72.8248 H       236        0    0.0000
   1423 C         121.6446  115.8666   73.1950 C.3     237        0    0.0000
   1424 C         122.1264  115.0071   74.3690 C.3     237        0    0.0000
   1425 H         121.1727  116.7837   73.5691 H       237        0    0.0000
   1426 H         120.8780  115.3281   72.6242 H       237        0    0.0000
   1427 H         122.5491  114.0655   73.9971 H       237        0    0.0000
   1428 H         122.9311  115.5227   74.9074 H       237        0    0.0000
   1429 C         120.9724  114.6792   75.3781 C.3     238        0    0.0000
   1430 C         120.9301  113.1927   75.7491 C.3     238        0    0.0000
   1431 H         121.1080  115.2884   76.2804 H       238        0    0.0000
   1432 H         120.0167  114.9832   74.9334 H       238        0    0.0000
   1433 H         121.1445  112.5783   74.8659 H       238        0    0.0000
   1434 H         121.7100  112.9668   76.4868 H       238        0    0.0000
   1435 C         119.5405  112.7662   76.3362 C.3     239        0    0.0000
   1436 C         119.4699  111.2633   76.6283 C.3     239        0    0.0000
   1437 H         119.3543  113.3370   77.2543 H       239        0    0.0000
   1438 H         118.7545  113.0485   75.6249 H       239        0    0.0000
   1439 H         119.6724  110.6924   75.7136 H       239        0    0.0000
   1440 H         120.2455  110.9839   77.3521 H       239        0    0.0000
   1441 C         118.0726  110.8329   77.1936 C.3     240        0    0.0000
   1442 C         118.0230  109.3424   77.5470 C.3     240        0    0.0000
   1443 H         117.8488  111.4376   78.0812 H       240        0    0.0000
   1444 H         117.3021  111.0689   76.4492 H       240        0    0.0000
   1445 H         118.0397  108.7380   76.6316 H       240        0    0.0000
   1446 H         118.9125  109.0631   78.1252 H       240        0    0.0000
   1447 C         116.7448  108.9703   78.3749 C.3     241        0    0.0000
   1448 C         116.7584  107.5098   78.8393 C.3     241        0    0.0000
   1449 H         116.6774  109.6399   79.2412 H       241        0    0.0000
   1450 H         115.8570  109.1611   77.7594 H       241        0    0.0000
   1451 H         116.8637  107.4629   79.9302 H       241        0    0.0000
   1452 H         115.8038  107.0281   78.5939 H       241        0    0.0000
   1453 C         117.9219  106.6887   78.1837 C.3     242        0    0.0000
   1454 C         118.2417  105.4093   78.9647 C.3     242        0    0.0000
   1455 H         117.6417  106.4399   77.1526 H       242        0    0.0000
   1456 H         118.8133  107.3252   78.1230 H       242        0    0.0000
   1457 H         117.3894  105.1317   79.5971 H       242        0    0.0000
   1458 H         118.4038  104.5754   78.2705 H       242        0    0.0000
   1459 C         119.5119  105.5676   79.8696 C.3     243        0    0.0000
   1460 C         119.8369  104.2855   80.6440 C.3     243        0    0.0000
   1461 H         120.3629  105.8515   79.2381 H       243        0    0.0000
   1462 H         119.3474  106.3974   80.5681 H       243        0    0.0000
   1463 H         118.9477  103.6454   80.7018 H       243        0    0.0000
   1464 H         120.6053  103.7099   80.1131 H       243        0    0.0000
   1465 C         120.3419  104.5815   82.0982 C.3     244        0    0.0000
   1466 C         119.9307  103.4877   83.0898 C.3     244        0    0.0000
   1467 H         121.4342  104.6812   82.0797 H       244        0    0.0000
   1468 H         119.9425  105.5511   82.4207 H       244        0    0.0000
   1469 H         118.9008  103.1668   82.8902 H       244        0    0.0000
   1470 H         120.5669  102.6035   82.9597 H       244        0    0.0000
   1471 C         120.0307  103.9675   84.5789 C.3     245        0    0.0000
   1472 C         119.6952  102.8503   85.5730 C.3     245        0    0.0000
   1473 H         121.0455  104.3420   84.7623 H       245        0    0.0000
   1474 H         119.3508  104.8162   84.7233 H       245        0    0.0000
   1475 H         118.6724  102.4912   85.4042 H       245        0    0.0000
   1476 H         120.3605  101.9926   85.4136 H       245        0    0.0000
   1477 C         119.8261  103.3213   87.0624 C.3     246        0    0.0000
   1478 C         119.5063  102.1994   88.0566 C.3     246        0    0.0000
   1479 H         120.8455  103.6913   87.2280 H       246        0    0.0000
   1480 H         119.1520  104.1714   87.2250 H       246        0    0.0000
   1481 H         118.4849  101.8333   87.8947 H       246        0    0.0000
   1482 H         120.1766  101.3470   87.8903 H       246        0    0.0000
   1483 C         119.6449  102.6682   89.5461 C.3     247        0    0.0000
   1484 C         119.2695  101.5635   90.5400 C.3     247        0    0.0000
   1485 H         120.6778  102.9949   89.7193 H       247        0    0.0000
   1486 H         119.0064  103.5467   89.7012 H       247        0    0.0000
   1487 H         118.2385  101.2330   90.3632 H       247        0    0.0000
   1488 H         119.9116  100.6870   90.3884 H       247        0    0.0000
   1489 C         119.4008  102.0347   92.0294 C.3     248        0    0.0000
   1490 C         120.0691  100.9782   92.9160 C.3     248        0    0.0000
   1491 H         119.9778  102.9674   92.0556 H       248        0    0.0000
   1492 H         118.4014  102.2716   92.4147 H       248        0    0.0000
   1493 H         119.3935  100.1258   93.0597 H       248        0    0.0000
   1494 H         120.9683  100.5879   92.4235 H       248        0    0.0000
   1495 C         120.4693  101.5481   94.3205 C.3     249        0    0.0000
   1496 C         119.8245  100.7659   95.4700 C.3     249        0    0.0000
   1497 H         121.5620  101.5223   94.4143 H       249        0    0.0000
   1498 H         120.1736  102.6033   94.3712 H       249        0    0.0000
   1499 H         118.8614  100.3503   95.1486 H       249        0    0.0000
   1500 H         120.4581   99.9143   95.7475 H       249        0    0.0000
   1501 C         119.5921  101.6573   96.7384 C.3     250        0    0.0000
   1502 C         120.1770  101.0264   98.0068 C.3     250        0    0.0000
   1503 H         120.0432  102.6423   96.5658 H       250        0    0.0000
   1504 H         118.5146  101.8217   96.8625 H       250        0    0.0000
   1505 H         119.5528  100.1841   98.3302 H       250        0    0.0000
   1506 H         121.1738  100.6181   97.7987 H       250        0    0.0000
   1507 C         120.2880  102.0546   99.1849 C.3     251        0    0.0000
   1508 C         120.1113  101.3899  100.5546 C.3     251        0    0.0000
   1509 H         121.2651  102.5504   99.1307 H       251        0    0.0000
   1510 H         119.5303  102.8355   99.0452 H       251        0    0.0000
   1511 H         119.1999  100.7793  100.5616 H       251        0    0.0000
   1512 H         120.9482  100.7089  100.7530 H       251        0    0.0000
   1513 C         120.0262  102.4381  101.7171 C.3     252        0    0.0000
   1514 C         120.0520  101.7761  103.0992 C.3     252        0    0.0000
   1515 H         120.8627  103.1413  101.6211 H       252        0    0.0000
   1516 H         119.1066  103.0244  101.5980 H       252        0    0.0000
   1517 H         119.1906  101.1060  103.2114 H       252        0    0.0000
   1518 H         120.9501  101.1545  103.2018 H       252        0    0.0000
   1519 C         120.0294  102.8272  104.2619 C.3     253        0    0.0000
   1520 C         120.0385  102.1648  105.6440 C.3     253        0    0.0000
   1521 H         120.8974  103.4898  104.1566 H       253        0    0.0000
   1522 H         119.1375  103.4566  104.1523 H       253        0    0.0000
   1523 H         119.1697  101.5033  105.7499 H       253        0    0.0000
   1524 H         120.9296  101.5344  105.7531 H       253        0    0.0000
   1525 C         120.0178  103.2160  106.8068 C.3     254        0    0.0000
   1526 C         120.0247  102.5536  108.1889 C.3     254        0    0.0000
   1527 H         120.8875  103.8765  106.7019 H       254        0    0.0000
   1528 H         119.1275  103.8475  106.6968 H       254        0    0.0000
   1529 H         119.1529  101.8961  108.2952 H       254        0    0.0000
   1530 H         120.9130  101.9190  108.2975 H       254        0    0.0000
   1531 C         120.0095  103.6049  109.3517 C.3     255        0    0.0000
   1532 C         120.0125  102.9424  110.7338 C.3     255        0    0.0000
   1533 H         120.8828  104.2606  109.2469 H       255        0    0.0000
   1534 H         119.1227  104.2412  109.2415 H       255        0    0.0000
   1535 H         119.1387  102.2874  110.8388 H       255        0    0.0000
   1536 H         120.8988  102.3052  110.8436 H       255        0    0.0000
   1537 C         119.9988  103.9937  111.8965 C.3     256        0    0.0000
   1538 C         120.0054  103.3312  113.2786 C.3     256        0    0.0000
   1539 H         120.8712  104.6503  111.7899 H       256        0    0.0000
   1540 H         119.1111  104.6292  111.7882 H       256        0    0.0000
   1541 H         119.1339  102.6733  113.3845 H       256        0    0.0000
   1542 H         120.8940  102.6972  113.3876 H       256        0    0.0000
   1543 C         119.9891  104.3825  114.4414 C.3     257        0    0.0000
   1544 C         120.0025  103.7202  115.8235 C.3     257        0    0.0000
   1545 H         120.8578  105.0436  114.3326 H       257        0    0.0000
   1546 H         119.0979  105.0134  114.3353 H       257        0    0.0000
   1547 H         119.1330  103.0602  115.9328 H       257        0    0.0000
   1548 H         120.8930  103.0881  115.9291 H       257        0    0.0000
   1549 C         119.9883  104.7715  116.9863 C.3     258        0    0.0000
   1550 C         119.9982  104.1091  118.3683 C.3     258        0    0.0000
   1551 H         120.8591  105.4298  116.8784 H       258        0    0.0000
   1552 H         119.0991  105.4051  116.8792 H       258        0    0.0000
   1553 H         119.1331  103.4425  118.4723 H       258        0    0.0000
   1554 H         120.8928  103.4838  118.4794 H       258        0    0.0000
   1555 C         119.9689  105.1600  119.5311 C.3     259        0    0.0000
   1556 C         119.9822  104.4977  120.9132 C.3     259        0    0.0000
   1557 H         120.8327  105.8281  119.4258 H       259        0    0.0000
   1558 H         119.0731  105.7838  119.4215 H       259        0    0.0000
   1559 H         120.9737  104.0755  121.1185 H       259        0    0.0000
   1560 H         119.7916  105.2472  121.6914 H       259        0    0.0000
   1561 C         118.9125  103.3584  121.0363 C.3     260        0    0.0000
   1562 C         119.2050  102.4109  122.2050 C.3     260        0    0.0000
   1563 H         117.9226  103.8146  121.1606 H       260        0    0.0000
   1564 H         118.8844  102.7965  120.0945 H       260        0    0.0000
   1565 H         119.1775  102.9629  123.1527 H       260        0    0.0000
   1566 H         118.4277  101.6392  122.2672 H       260        0    0.0000
   1567 C         120.6013  101.7117  122.0679 C.3     261        0    0.0000
   1568 C         120.5090  100.1914  122.2393 C.3     261        0    0.0000
   1569 H         121.0233  101.9545  121.0848 H       261        0    0.0000
   1570 H         121.2832  102.1339  122.8164 H       261        0    0.0000
   1571 H         120.0870   99.9487  123.2224 H       261        0    0.0000
   1572 H         119.8271   99.7692  121.4907 H       261        0    0.0000
   1573 H         121.4799   99.7053  122.1439 H       261        0    0.0000
   1574 H          39.2798    1.2287  121.7450 H         0        0    0.0000
@<TRIPOS>BOND
     1     1     2      1
     2     1     3      1
     3     1     4      1
     4     1  1574      H
     5     2     5      1
     6     2     6      1
     7     2     7      1
     8     7     8      1
     9     7     9      1
    10     7    10      1
    11     8    11      1
    12     8    12      1
    13     8    13      1
    14    13    14      1
    15    13    15      1
    16    13    16      1
    17    14    17      1
    18    14    18      1
    19    14    19      1
    20    19    20      1
    21    19    21      1
    22    19    22      1
    23    20    23      1
    24    20    24      1
    25    20    25      1
    26    25    26      1
    27    25    27      1
    28    25    28      1
    29    26    29      1
    30    26    30      1
    31    26    31      1
    32    31    32      1
    33    31    33      1
    34    31    34      1
    35    32    35      1
    36    32    36      1
    37    32    37      1
    38    37    38      1
    39    37    39      1
    40    37    40      1
    41    38    41      1
    42    38    42      1
    43    38    43      1
    44    43    44      1
    45    43    45      1
    46    43    46      1
    47    44    47      1
    48    44    48      1
    49    44    49      1
    50    49    50      1
    51    49    51      1
    52    49    52      1
    53    50    53      1
    54    50    54      1
    55    50    55      1
    56    55    56      1
    57    55    57      1
    58    55    58      1
    59    56    59      1
    60    56    60      1
    61    56    61      1
    62    61    62      1
    63    61    63      1
    64    61    64      1
    65    62    65      1
    66    62    66      1
    67    62    67      1
    68    67    68      1
    69    67    69      1
    70    67    70      1
    71    68    71      1
    72    68    72      1
    73    68    73      1
    74    73    74      1
    75    73    75      1
    76    73    76      1
    77    74    77      1
    78    74    78      1
    79    74    79      1
    80    79    80      1
    81    79    81      1
    82    79    82      1
    83    80    83      1
    84    80    84      1
    85    80    85      1
    86    85    86      1
    87    85    87      1
    88    85    88      1
    89    86    89      1
    90    86    90      1
    91    86    91      1
    92    91    92      1
    93    91    93      1
    94    91    94      1
    95    92    95      1
    96    92    96      1
    97    92    97      1
    98    97    98      1
    99    97    99      1
   100    97   100      1
   101    98   101      1
   102    98   102      1
   103    98   103      1
   104   103   104      1
   105   103   105      1
   106   103   106      1
   107   104   107      1
   108   104   108      1
   109   104   109      1
   110   109   110      1
   111   109   111      1
   112   109   112      1
   113   110   113      1
   114   110   114      1
   115   110   115      1
   116   115   116      1
   117   115   117      1
   118   115   118      1
   119   116   119      1
   120   116   120      1
   121   116   121      1
   122   121   122      1
   123   121   123      1
   124   121   124      1
   125   122   125      1
   126   122   126      1
   127   122   127      1
   128   127   128      1
   129   127   129      1
   130   127   130      1
   131   128   131      1
   132   128   132      1
   133   128   133      1
   134   133   134      1
   135   133   135      1
   136   133   136      1
   137   134   137      1
   138   134   138      1
   139   134   139      1
   140   139   140      1
   141   139   141      1
   142   139   142      1
   143   140   143      1
   144   140   144      1
   145   140   145      1
   146   145   146      1
   147   145   147      1
   148   145   148      1
   149   146   149      1
   150   146   150      1
   151   146   151      1
   152   151   152      1
   153   151   153      1
   154   151   154      1
   155   152   155      1
   156   152   156      1
   157   152   157      1
   158   157   158      1
   159   157   159      1
   160   157   160      1
   161   158   161      1
   162   158   162      1
   163   158   163      1
   164   163   164      1
   165   163   165      1
   166   163   166      1
   167   164   167      1
   168   164   168      1
   169   164   169      1
   170   169   170      1
   171   169   171      1
   172   169   172      1
   173   170   173      1
   174   170   174      1
   175   170   175      1
   176   175   176      1
   177   175   177      1
   178   175   178      1
   179   176   179      1
   180   176   180      1
   181   176   181      1
   182   181   182      1
   183   181   183      1
   184   181   184      1
   185   182   185      1
   186   182   186      1
   187   182   187      1
   188   187   188      1
   189   187   189      1
   190   187   190      1
   191   188   191      1
   192   188   192      1
   193   188   193      1
   194   193   194      1
   195   193   195      1
   196   193   196      1
   197   194   197      1
   198   194   198      1
   199   194   199      1
   200   199   200      1
   201   199   201      1
   202   199   202      1
   203   200   203      1
   204   200   204      1
   205   200   205      1
   206   205   206      1
   207   205   207      1
   208   205   208      1
   209   206   209      1
   210   206   210      1
   211   206   211      1
   212   211   212      1
   213   211   213      1
   214   211   214      1
   215   212   215      1
   216   212   216      1
   217   212   217      1
   218   217   218      1
   219   217   219      1
   220   217   220      1
   221   218   221      1
   222   218   222      1
   223   218   223      1
   224   223   224      1
   225   223   225      1
   226   223   226      1
   227   224   227      1
   228   224   228      1
   229   224   229      1
   230   229   230      1
   231   229   231      1
   232   229   232      1
   233   230   233      1
   234   230   234      1
   235   230   235      1
   236   235   236      1
   237   235   237      1
   238   235   238      1
   239   236   239      1
   240   236   240      1
   241   236   241      1
   242   241   242      1
   243   241   243      1
   244   241   244      1
   245   242   245      1
   246   242   246      1
   247   242   247      1
   248   247   248      1
   249   247   249      1
   250   247   250      1
   251   248   251      1
   252   248   252      1
   253   248   253      1
   254   253   254      1
   255   253   255      1
   256   253   256      1
   257   254   257      1
   258   254   258      1
   259   254   259      1
   260   259   260      1
   261   259   261      1
   262   259   262      1
   263   260   263      1
   264   260   264      1
   265   260   265      1
   266   265   266      1
   267   265   267      1
   268   265   268      1
   269   266   269      1
   270   266   270      1
   271   266   271      1
   272   271   272      1
   273   271   273      1
   274   271   274      1
   275   272   275      1
   276   272   276      1
   277   272   277      1
   278   277   278      1
   279   277   279      1
   280   277   280      1
   281   278   281      1
   282   278   282      1
   283   278   283      1
   284   283   284      1
   285   283   285      1
   286   283   286      1
   287   284   287      1
   288   284   288      1
   289   284   289      1
   290   289   290      1
   291   289   291      1
   292   289   292      1
   293   290   293      1
   294   290   294      1
   295   290   295      1
   296   295   296      1
   297   295   297      1
   298   295   298      1
   299   296   299      1
   300   296   300      1
   301   296   301      1
   302   301   302      1
   303   301   303      1
   304   301   304      1
   305   302   305      1
   306   302   306      1
   307   302   307      1
   308   307   308      1
   309   307   309      1
   310   307   310      1
   311   308   311      1
   312   308   312      1
   313   308   313      1
   314   313   314      1
   315   313   315      1
   316   313   316      1
   317   314   317      1
   318   314   318      1
   319   314   319      1
   320   319   320      1
   321   319   321      1
   322   319   322      1
   323   320   323      1
   324   320   324      1
   325   320   325      1
   326   325   326      1
   327   325   327      1
   328   325   328      1
   329   326   329      1
   330   326   330      1
   331   326   331      1
   332   331   332      1
   333   331   333      1
   334   331   334      1
   335   332   335      1
   336   332   336      1
   337   332   337      1
   338   337   338      1
   339   337   339      1
   340   337   340      1
   341   338   341      1
   342   338   342      1
   343   338   343      1
   344   343   344      1
   345   343   345      1
   346   343   346      1
   347   344   347      1
   348   344   348      1
   349   344   349      1
   350   349   350      1
   351   349   351      1
   352   349   352      1
   353   350   353      1
   354   350   354      1
   355   350   355      1
   356   355   356      1
   357   355   357      1
   358   355   358      1
   359   356   359      1
   360   356   360      1
   361   356   361      1
   362   361   362      1
   363   361   363      1
   364   361   364      1
   365   362   365      1
   366   362   366      1
   367   362   367      1
   368   367   368      1
   369   367   369      1
   370   367   370      1
   371   368   371      1
   372   368   372      1
   373   368   373      1
   374   373   374      1
   375   373   375      1
   376   373   376      1
   377   374   377      1
   378   374   378      1
   379   374   379      1
   380   379   380      1
   381   379   381      1
   382   379   382      1
   383   380   383      1
   384   380   384      1
   385   380   385      1
   386   385   386      1
   387   385   387      1
   388   385   388      1
   389   386   389      1
   390   386   390      1
   391   386   391      1
   392   391   392      1
   393   391   393      1
   394   391   394      1
   395   392   395      1
   396   392   396      1
   397   392   397      1
   398   397   398      1
   399   397   399      1
   400   397   400      1
   401   398   401      1
   402   398   402      1
   403   398   403      1
   404   403   404      1
   405   403   405      1
   406   403   406      1
   407   404   407      1
   408   404   408      1
   409   404   409      1
   410   409   410      1
   411   409   411      1
   412   409   412      1
   413   410   413      1
   414   410   414      1
   415   410   415      1
   416   415   416      1
   417   415   417      1
   418   415   418      1
   419   416   419      1
   420   416   420      1
   421   416   421      1
   422   421   422      1
   423   421   423      1
   424   421   424      1
   425   422   425      1
   426   422   426      1
   427   422   427      1
   428   427   428      1
   429   427   429      1
   430   427   430      1
   431   428   431      1
   432   428   432      1
   433   428   433      1
   434   433   434      1
   435   433   435      1
   436   433   436      1
   437   434   437      1
   438   434   438      1
   439   434   439      1
   440   439   440      1
   441   439   441      1
   442   439   442      1
   443   440   443      1
   444   440   444      1
   445   440   445      1
   446   445   446      1
   447   445   447      1
   448   445   448      1
   449   446   449      1
   450   446   450      1
   451   446   451      1
   452   451   452      1
   453   451   453      1
   454   451   454      1
   455   452   455      1
   456   452   456      1
   457   452   457      1
   458   457   458      1
   459   457   459      1
   460   457   460      1
   461   458   461      1
   462   458   462      1
   463   458   463      1
   464   463   464      1
   465   463   465      1
   466   463   466      1
   467   464   467      1
   468   464   468      1
   469   464   469      1
   470   469   470      1
   471   469   471      1
   472   469   472      1
   473   470   473      1
   474   470   474      1
   475   470   475      1
   476   475   476      1
   477   475   477      1
   478   475   478      1
   479   476   479      1
   480   476   480      1
   481   476   481      1
   482   481   482      1
   483   481   483      1
   484   481   484      1
   485   482   485      1
   486   482   486      1
   487   482   487      1
   488   487   488      1
   489   487   489      1
   490   487   490      1
   491   488   491      1
   492   488   492      1
   493   488   493      1
   494   493   494      1
   495   493   495      1
   496   493   496      1
   497   494   497      1
   498   494   498      1
   499   494   499      1
   500   499   500      1
   501   499   501      1
   502   499   502      1
   503   500   503      1
   504   500   504      1
   505   500   505      1
   506   505   506      1
   507   505   507      1
   508   505   508      1
   509   506   509      1
   510   506   510      1
   511   506   511      1
   512   511   512      1
   513   511   513      1
   514   511   514      1
   515   512   515      1
   516   512   516      1
   517   512   517      1
   518   517   518      1
   519   517   519      1
   520   517   520      1
   521   518   521      1
   522   518   522      1
   523   518   523      1
   524   523   524      1
   525   523   525      1
   526   523   526      1
   527   524   527      1
   528   524   528      1
   529   524   529      1
   530   529   530      1
   531   529   531      1
   532   529   532      1
   533   530   533      1
   534   530   534      1
   535   530   535      1
   536   535   536      1
   537   535   537      1
   538   535   538      1
   539   536   539      1
   540   536   540      1
   541   536   541      1
   542   541   542      1
   543   541   543      1
   544   541   544      1
   545   542   545      1
   546   542   546      1
   547   542   547      1
   548   547   548      1
   549   547   549      1
   550   547   550      1
   551   548   551      1
   552   548   552      1
   553   548   553      1
   554   553   554      1
   555   553   555      1
   556   553   556      1
   557   554   557      1
   558   554   558      1
   559   554   559      1
   560   559   560      1
   561   559   561      1
   562   559   562      1
   563   560   563      1
   564   560   564      1
   565   560   565      1
   566   565   566      1
   567   565   567      1
   568   565   568      1
   569   566   569      1
   570   566   570      1
   571   566   571      1
   572   571   572      1
   573   571   573      1
   574   571   574      1
   575   572   575      1
   576   572   576      1
   577   572   577      1
   578   577   578      1
   579   577   579      1
   580   577   580      1
   581   578   581      1
   582   578   582      1
   583   578   583      1
   584   583   584      1
   585   583   585      1
   586   583   586      1
   587   584   587      1
   588   584   588      1
   589   584   589      1
   590   589   590      1
   591   589   591      1
   592   589   592      1
   593   590   593      1
   594   590   594      1
   595   590   595      1
   596   595   596      1
   597   595   597      1
   598   595   598      1
   599   596   599      1
   600   596   600      1
   601   596   601      1
   602   601   602      1
   603   601   603      1
   604   601   604      1
   605   602   605      1
   606   602   606      1
   607   602   607      1
   608   607   608      1
   609   607   609      1
   610   607   610      1
   611   608   611      1
   612   608   612      1
   613   608   613      1
   614   613   614      1
   615   613   615      1
   616   613   616      1
   617   614   617      1
   618   614   618      1
   619   614   619      1
   620   619   620      1
   621   619   621      1
   622   619   622      1
   623   620   623      1
   624   620   624      1
   625   620   625      1
   626   625   626      1
   627   625   627      1
   628   625   628      1
   629   626   629      1
   630   626   630      1
   631   626   631      1
   632   631   632      1
   633   631   633      1
   634   631   634      1
   635   632   635      1
   636   632   636      1
   637   632   637      1
   638   637   638      1
   639   637   639      1
   640   637   640      1
   641   638   641      1
   642   638   642      1
   643   638   643      1
   644   643   644      1
   645   643   645      1
   646   643   646      1
   647   644   647      1
   648   644   648      1
   649   644   649      1
   650   649   650      1
   651   649   651      1
   652   649   652      1
   653   650   653      1
   654   650   654      1
   655   650   655      1
   656   655   656      1
   657   655   657      1
   658   655   658      1
   659   656   659      1
   660   656   660      1
   661   656   661      1
   662   661   662      1
   663   661   663      1
   664   661   664      1
   665   662   665      1
   666   662   666      1
   667   662   667      1
   668   667   668      1
   669   667   669      1
   670   667   670      1
   671   668   671      1
   672   668   672      1
   673   668   673      1
   674   673   674      1
   675   673   675      1
   676   673   676      1
   677   674   677      1
   678   674   678      1
   679   674   679      1
   680   679   680      1
   681   679   681      1
   682   679   682      1
   683   680   683      1
   684   680   684      1
   685   680   685      1
   686   685   686      1
   687   685   687      1
   688   685   688      1
   689   686   689      1
   690   686   690      1
   691   686   691      1
   692   691   692      1
   693   691   693      1
   694   691   694      1
   695   692   695      1
   696   692   696      1
   697   692   697      1
   698   697   698      1
   699   697   699      1
   700   697   700      1
   701   698   701      1
   702   698   702      1
   703   698   703      1
   704   703   704      1
   705   703   705      1
   706   703   706      1
   707   704   707      1
   708   704   708      1
   709   704   709      1
   710   709   710      1
   711   709   711      1
   712   709   712      1
   713   710   713      1
   714   710   714      1
   715   710   715      1
   716   715   716      1
   717   715   717      1
   718   715   718      1
   719   716   719      1
   720   716   720      1
   721   716   721      1
   722   721   722      1
   723   721   723      1
   724   721   724      1
   725   722   725      1
   726   722   726      1
   727   722   727      1
   728   727   728      1
   729   727   729      1
   730   727   730      1
   731   728   731      1
   732   728   732      1
   733   728   733      1
   734   733   734      1
   735   733   735      1
   736   733   736      1
   737   734   737      1
   738   734   738      1
   739   734   739      1
   740   739   740      1
   741   739   741      1
   742   739   742      1
   743   740   743      1
   744   740   744      1
   745   740   745      1
   746   745   746      1
   747   745   747      1
   748   745   748      1
   749   746   749      1
   750   746   750      1
   751   746   751      1
   752   751   752      1
   753   751   753      1
   754   751   754      1
   755   752   755      1
   756   752   756      1
   757   752   757      1
   758   757   758      1
   759   757   759      1
   760   757   760      1
   761   758   761      1
   762   758   762      1
   763   758   763      1
   764   763   764      1
   765   763   765      1
   766   763   766      1
   767   764   767      1
   768   764   768      1
   769   764   769      1
   770   769   770      1
   771   769   771      1
   772   769   772      1
   773   770   773      1
   774   770   774      1
   775   770   775      1
   776   775   776      1
   777   775   777      1
   778   775   778      1
   779   776   779      1
   780   776   780      1
   781   776   781      1
   782   781   782      1
   783   781   783      1
   784   781   784      1
   785   782   785      1
   786   782   786      1
   787   782   787      1
   788   787   788      1
   789   787   789      1
   790   787   790      1
   791   788   791      1
   792   788   792      1
   793   788   793      1
   794   793   794      1
   795   793   795      1
   796   793   796      1
   797   794   797      1
   798   794   798      1
   799   794   799      1
   800   799   800      1
   801   799   801      1
   802   799   802      1
   803   800   803      1
   804   800   804      1
   805   800   805      1
   806   805   806      1
   807   805   807      1
   808   805   808      1
   809   806   809      1
   810   806   810      1
   811   806   811      1
   812   811   812      1
   813   811   813      1
   814   811   814      1
   815   812   815      1
   816   812   816      1
   817   812   817      1
   818   817   818      1
   819   817   819      1
   820   817   820      1
   821   818   821      1
   822   818   822      1
   823   818   823      1
   824   823   824      1
   825   823   825      1
   826   823   826      1
   827   824   827      1
   828   824   828      1
   829   824   829      1
   830   829   830      1
   831   829   831      1
   832   829   832      1
   833   830   833      1
   834   830   834      1
   835   830   835      1
   836   835   836      1
   837   835   837      1
   838   835   838      1
   839   836   839      1
   840   836   840      1
   841   836   841      1
   842   841   842      1
   843   841   843      1
   844   841   844      1
   845   842   845      1
   846   842   846      1
   847   842   847      1
   848   847   848      1
   849   847   849      1
   850   847   850      1
   851   848   851      1
   852   848   852      1
   853   848   853      1
   854   853   854      1
   855   853   855      1
   856   853   856      1
   857   854   857      1
   858   854   858      1
   859   854   859      1
   860   859   860      1
   861   859   861      1
   862   859   862      1
   863   860   863      1
   864   860   864      1
   865   860   865      1
   866   865   866      1
   867   865   867      1
   868   865   868      1
   869   866   869      1
   870   866   870      1
   871   866   871      1
   872   871   872      1
   873   871   873      1
   874   871   874      1
   875   872   875      1
   876   872   876      1
   877   872   877      1
   878   877   878      1
   879   877   879      1
   880   877   880      1
   881   878   881      1
   882   878   882      1
   883   878   883      1
   884   883   884      1
   885   883   885      1
   886   883   886      1
   887   884   887      1
   888   884   888      1
   889   884   889      1
   890   889   890      1
   891   889   891      1
   892   889   892      1
   893   890   893      1
   894   890   894      1
   895   890   895      1
   896   895   896      1
   897   895   897      1
   898   895   898      1
   899   896   899      1
   900   896   900      1
   901   896   901      1
   902   901   902      1
   903   901   903      1
   904   901   904      1
   905   902   905      1
   906   902   906      1
   907   902   907      1
   908   907   908      1
   909   907   909      1
   910   907   910      1
   911   908   911      1
   912   908   912      1
   913   908   913      1
   914   913   914      1
   915   913   915      1
   916   913   916      1
   917   914   917      1
   918   914   918      1
   919   914   919      1
   920   919   920      1
   921   919   921      1
   922   919   922      1
   923   920   923      1
   924   920   924      1
   925   920   925      1
   926   925   926      1
   927   925   927      1
   928   925   928      1
   929   926   929      1
   930   926   930      1
   931   926   931      1
   932   931   932      1
   933   931   933      1
   934   931   934      1
   935   932   935      1
   936   932   936      1
   937   932   937      1
   938   937   938      1
   939   937   939      1
   940   937   940      1
   941   938   941      1
   942   938   942      1
   943   938   943      1
   944   943   944      1
   945   943   945      1
   946   943   946      1
   947   944   947      1
   948   944   948      1
   949   944   949      1
   950   949   950      1
   951   949   951      1
   952   949   952      1
   953   950   953      1
   954   950   954      1
   955   950   955      1
   956   955   956      1
   957   955   957      1
   958   955   958      1
   959   956   959      1
   960   956   960      1
   961   956   961      1
   962   961   962      1
   963   961   963      1
   964   961   964      1
   965   962   965      1
   966   962   966      1
   967   962   967      1
   968   967   968      1
   969   967   969      1
   970   967   970      1
   971   968   971      1
   972   968   972      1
   973   968   973      1
   974   973   974      1
   975   973   975      1
   976   973   976      1
   977   974   977      1
   978   974   978      1
   979   974   979      1
   980   979   980      1
   981   979   981      1
   982   979   982      1
   983   980   983      1
   984   980   984      1
   985   980   985      1
   986   985   986      1
   987   985   987      1
   988   985   988      1
   989   986   989      1
   990   986   990      1
   991   986   991      1
   992   991   992      1
   993   991   993      1
   994   991   994      1
   995   992   995      1
   996   992   996      1
   997   992   997      1
   998   997   998      1
   999   997   999      1
  1000   997  1000      1
  1001   998  1001      1
  1002   998  1002      1
  1003   998  1003      1
  1004  1003  1004      1
  1005  1003  1005      1
  1006  1003  1006      1
  1007  1004  1007      1
  1008  1004  1008      1
  1009  1004  1009      1
  1010  1009  1010      1
  1011  1009  1011      1
  1012  1009  1012      1
  1013  1010  1013      1
  1014  1010  1014      1
  1015  1010  1015      1
  1016  1015  1016      1
  1017  1015  1017      1
  1018  1015  1018      1
  1019  1016  1019      1
  1020  1016  1020      1
  1021  1016  1021      1
  1022  1021  1022      1
  1023  1021  1023      1
  1024  1021  1024      1
  1025  1022  1025      1
  1026  1022  1026      1
  1027  1022  1027      1
  1028  1027  1028      1
  1029  1027  1029      1
  1030  1027  1030      1
  1031  1028  1031      1
  1032  1028  1032      1
  1033  1028  1033      1
  1034  1033  1034      1
  1035  1033  1035      1
  1036  1033  1036      1
  1037  1034  1037      1
  1038  1034  1038      1
  1039  1034  1039      1
  1040  1039  1040      1
  1041  1039  1041      1
  1042  1039  1042      1
  1043  1040  1043      1
  1044  1040  1044      1
  1045  1040  1045      1
  1046  1045  1046      1
  1047  1045  1047      1
  1048  1045  1048      1
  1049  1046  1049      1
  1050  1046  1050      1
  1051  1046  1051      1
  1052  1051  1052      1
  1053  1051  1053      1
  1054  1051  1054      1
  1055  1052  1055      1
  1056  1052  1056      1
  1057  1052  1057      1
  1058  1057  1058      1
  1059  1057  1059      1
  1060  1057  1060      1
  1061  1058  1061      1
  1062  1058  1062      1
  1063  1058  1063      1
  1064  1063  1064      1
  1065  1063  1065      1
  1066  1063  1066      1
  1067  1064  1067      1
  1068  1064  1068      1
  1069  1064  1069      1
  1070  1069  1070      1
  1071  1069  1071      1
  1072  1069  1072      1
  1073  1070  1073      1
  1074  1070  1074      1
  1075  1070  1075      1
  1076  1075  1076      1
  1077  1075  1077      1
  1078  1075  1078      1
  1079  1076  1079      1
  1080  1076  1080      1
  1081  1076  1081      1
  1082  1081  1082      1
  1083  1081  1083      1
  1084  1081  1084      1
  1085  1082  1085      1
  1086  1082  1086      1
  1087  1082  1087      1
  1088  1087  1088      1
  1089  1087  1089      1
  1090  1087  1090      1
  1091  1088  1091      1
  1092  1088  1092      1
  1093  1088  1093      1
  1094  1093  1094      1
  1095  1093  1095      1
  1096  1093  1096      1
  1097  1094  1097      1
  1098  1094  1098      1
  1099  1094  1099      1
  1100  1099  1100      1
  1101  1099  1101      1
  1102  1099  1102      1
  1103  1100  1103      1
  1104  1100  1104      1
  1105  1100  1105      1
  1106  1105  1106      1
  1107  1105  1107      1
  1108  1105  1108      1
  1109  1106  1109      1
  1110  1106  1110      1
  1111  1106  1111      1
  1112  1111  1112      1
  1113  1111  1113      1
  1114  1111  1114      1
  1115  1112  1115      1
  1116  1112  1116      1
  1117  1112  1117      1
  1118  1117  1118      1
  1119  1117  1119      1
  1120  1117  1120      1
  1121  1118  1121      1
  1122  1118  1122      1
  1123  1118  1123      1
  1124  1123  1124      1
  1125  1123  1125      1
  1126  1123  1126      1
  1127  1124  1127      1
  1128  1124  1128      1
  1129  1124  1129      1
  1130  1129  1130      1
  1131  1129  1131      1
  1132  1129  1132      1
  1133  1130  1133      1
  1134  1130  1134      1
  1135  1130  1135      1
  1136  1135  1136      1
  1137  1135  1137      1
  1138  1135  1138      1
  1139  1136  1139      1
  1140  1136  1140      1
  1141  1136  1141      1
  1142  1141  1142      1
  1143  1141  1143      1
  1144  1141  1144      1
  1145  1142  1145      1
  1146  1142  1146      1
  1147  1142  1147      1
  1148  1147  1148      1
  1149  1147  1149      1
  1150  1147  1150      1
  1151  1148  1151      1
  1152  1148  1152      1
  1153  1148  1153      1
  1154  1153  1154      1
  1155  1153  1155      1
  1156  1153  1156      1
  1157  1154  1157      1
  1158  1154  1158      1
  1159  1154  1159      1
  1160  1159  1160      1
  1161  1159  1161      1
  1162  1159  1162      1
  1163  1160  1163      1
  1164  1160  1164      1
  1165  1160  1165      1
  1166  1165  1166      1
  1167  1165  1167      1
  1168  1165  1168      1
  1169  1166  1169      1
  1170  1166  1170      1
  1171  1166  1171      1
  1172  1171  1172      1
  1173  1171  1173      1
  1174  1171  1174      1
  1175  1172  1175      1
  1176  1172  1176      1
  1177  1172  1177      1
  1178  1177  1178      1
  1179  1177  1179      1
  1180  1177  1180      1
  1181  1178  1181      1
  1182  1178  1182      1
  1183  1178  1183      1
  1184  1183  1184      1
  1185  1183  1185      1
  1186  1183  1186      1
  1187  1184  1187      1
  1188  1184  1188      1
  1189  1184  1189      1
  1190  1189  1190      1
  1191  1189  1191      1
  1192  1189  1192      1
  1193  1190  1193      1
  1194  1190  1194      1
  1195  1190  1195      1
  1196  1195  1196      1
  1197  1195  1197      1
  1198  1195  1198      1
  1199  1196  1199      1
  1200  1196  1200      1
  1201  1196  1201      1
  1202  1201  1202      1
  1203  1201  1203      1
  1204  1201  1204      1
  1205  1202  1205      1
  1206  1202  1206      1
  1207  1202  1207      1
  1208  1207  1208      1
  1209  1207  1209      1
  1210  1207  1210      1
  1211  1208  1211      1
  1212  1208  1212      1
  1213  1208  1213      1
  1214  1213  1214      1
  1215  1213  1215      1
  1216  1213  1216      1
  1217  1214  1217      1
  1218  1214  1218      1
  1219  1214  1219      1
  1220  1219  1220      1
  1221  1219  1221      1
  1222  1219  1222      1
  1223  1220  1223      1
  1224  1220  1224      1
  1225  1220  1225      1
  1226  1225  1226      1
  1227  1225  1227      1
  1228  1225  1228      1
  1229  1226  1229      1
  1230  1226  1230      1
  1231  1226  1231      1
  1232  1231  1232      1
  1233  1231  1233      1
  1234  1231  1234      1
  1235  1232  1235      1
  1236  1232  1236      1
  1237  1232  1237      1
  1238  1237  1238      1
  1239  1237  1239      1
  1240  1237  1240      1
  1241  1238  1241      1
  1242  1238  1242      1
  1243  1238  1243      1
  1244  1243  1244      1
  1245  1243  1245      1
  1246  1243  1246      1
  1247  1244  1247      1
  1248  1244  1248      1
  1249  1244  1249      1
  1250  1249  1250      1
  1251  1249  1251      1
  1252  1249  1252      1
  1253  1250  1253      1
  1254  1250  1254      1
  1255  1250  1255      1
  1256  1255  1256      1
  1257  1255  1257      1
  1258  1255  1258      1
  1259  1256  1259      1
  1260  1256  1260      1
  1261  1256  1261      1
  1262  1261  1262      1
  1263  1261  1263      1
  1264  1261  1264      1
  1265  1262  1265      1
  1266  1262  1266      1
  1267  1262  1267      1
  1268  1267  1268      1
  1269  1267  1269      1
  1270  1267  1270      1
  1271  1268  1271      1
  1272  1268  1272      1
  1273  1268  1273      1
  1274  1273  1274      1
  1275  1273  1275      1
  1276  1273  1276      1
  1277  1274  1277      1
  1278  1274  1278      1
  1279  1274  1279      1
  1280  1279  1280      1
  1281  1279  1281      1
  1282  1279  1282      1
  1283  1280  1283      1
  1284  1280  1284      1
  1285  1280  1285      1
  1286  1285  1286      1
  1287  1285  1287      1
  1288  1285  1288      1
  1289  1286  1289      1
  1290  1286  1290      1
  1291  1286  1291      1
  1292  1291  1292      1
  1293  1291  1293      1
  1294  1291  1294      1
  1295  1292  1295      1
  1296  1292  1296      1
  1297  1292  1297      1
  1298  1297  1298      1
  1299  1297  1299      1
  1300  1297  1300      1
  1301  1298  1301      1
  1302  1298  1302      1
  1303  1298  1303      1
  1304  1303  1304      1
  1305  1303  1305      1
  1306  1303  1306      1
  1307  1304  1307      1
  1308  1304  1308      1
  1309  1304  1309      1
  1310  1309  1310      1
  1311  1309  1311      1
  1312  1309  1312      1
  1313  1310  1313      1
  1314  1310  1314      1
  1315  1310  1315      1
  1316  1315  1316      1
  1317  1315  1317      1
  1318  1315  1318      1
  1319  1316  1319      1
  1320  1316  1320      1
  1321  1316  1321      1
  1322  1321  1322      1
  1323  1321  1323      1
  1324  1321  1324      1
  1325  1322  1325      1
  1326  1322  1326      1
  1327  1322  1327      1
  1328  1327  1328      1
  1329  1327  1329      1
  1330  1327  1330      1
  1331  1328  1331      1
  1332  1328  1332      1
  1333  1328  1333      1
  1334  1333  1334      1
  1335  1333  1335      1
  1336  1333  1336      1
  1337  1334  1337      1
  1338  1334  1338      1
  1339  1334  1339      1
  1340  1339  1340      1
  1341  1339  1341      1
  1342  1339  1342      1
  1343  1340  1343      1
  1344  1340  1344      1
  1345  1340  1345      1
  1346  1345  1346      1
  1347  1345  1347      1
  1348  1345  1348      1
  1349  1346  1349      1
  1350  1346  1350      1
  1351  1346  1351      1
  1352  1351  1352      1
  1353  1351  1353      1
  1354  1351  1354      1
  1355  1352  1355      1
  1356  1352  1356      1
  1357  1352  1357      1
  1358  1357  1358      1
  1359  1357  1359      1
  1360  1357  1360      1
  1361  1358  1361      1
  1362  1358  1362      1
  1363  1358  1363      1
  1364  1363  1364      1
  1365  1363  1365      1
  1366  1363  1366      1
  1367  1364  1367      1
  1368  1364  1368      1
  1369  1364  1369      1
  1370  1369  1370      1
  1371  1369  1371      1
  1372  1369  1372      1
  1373  1370  1373      1
  1374  1370  1374      1
  1375  1370  1375      1
  1376  1375  1376      1
  1377  1375  1377      1
  1378  1375  1378      1
  1379  1376  1379      1
  1380  1376  1380      1
  1381  1376  1381      1
  1382  1381  1382      1
  1383  1381  1383      1
  1384  1381  1384      1
  1385  1382  1385      1
  1386  1382  1386      1
  1387  1382  1387      1
  1388  1387  1388      1
  1389  1387  1389      1
  1390  1387  1390      1
  1391  1388  1391      1
  1392  1388  1392      1
  1393  1388  1393      1
  1394  1393  1394      1
  1395  1393  1395      1
  1396  1393  1396      1
  1397  1394  1397      1
  1398  1394  1398      1
  1399  1394  1399      1
  1400  1399  1400      1
  1401  1399  1401      1
  1402  1399  1402      1
  1403  1400  1403      1
  1404  1400  1404      1
  1405  1400  1405      1
  1406  1405  1406      1
  1407  1405  1407      1
  1408  1405  1408      1
  1409  1406  1409      1
  1410  1406  1410      1
  1411  1406  1411      1
  1412  1411  1412      1
  1413  1411  1413      1
  1414  1411  1414      1
  1415  1412  1415      1
  1416  1412  1416      1
  1417  1412  1417      1
  1418  1417  1418      1
  1419  1417  1419      1
  1420  1417  1420      1
  1421  1418  1421      1
  1422  1418  1422      1
  1423  1418  1423      1
  1424  1423  1424      1
  1425  1423  1425      1
  1426  1423  1426      1
  1427  1424  1427      1
  1428  1424  1428      1
  1429  1424  1429      1
  1430  1429  1430      1
  1431  1429  1431      1
  1432  1429  1432      1
  1433  1430  1433      1
  1434  1430  1434      1
  1435  1430  1435      1
  1436  1435  1436      1
  1437  1435  1437      1
  1438  1435  1438      1
  1439  1436  1439      1
  1440  1436  1440      1
  1441  1436  1441      1
  1442  1441  1442      1
  1443  1441  1443      1
  1444  1441  1444      1
  1445  1442  1445      1
  1446  1442  1446      1
  1447  1442  1447      1
  1448  1447  1448      1
  1449  1447  1449      1
  1450  1447  1450      1
  1451  1448  1451      1
  1452  1448  1452      1
  1453  1448  1453      1
  1454  1453  1454      1
  1455  1453  1455      1
  1456  1453  1456      1
  1457  1454  1457      1
  1458  1454  1458      1
  1459  1454  1459      1
  1460  1459  1460      1
  1461  1459  1461      1
  1462  1459  1462      1
  1463  1460  1463      1
  1464  1460  1464      1
  1465  1460  1465      1
  1466  1465  1466      1
  1467  1465  1467      1
  1468  1465  1468      1
  1469  1466  1469      1
  1470  1466  1470      1
  1471  1466  1471      1
  1472  1471  1472      1
  1473  1471  1473      1
  1474  1471  1474      1
  1475  1472  1475      1
  1476  1472  1476      1
  1477  1472  1477      1
  1478  1477  1478      1
  1479  1477  1479      1
  1480  1477  1480      1
  1481  1478  1481      1
  1482  1478  1482      1
  1483  1478  1483      1
  1484  1483  1484      1
  1485  1483  1485      1
  1486  1483  1486      1
  1487  1484  1487      1
  1488  1484  1488      1
  1489  1484  1489      1
  1490  1489  1490      1
  1491  1489  1491      1
  1492  1489  1492      1
  1493  1490  1493      1
  1494  1490  1494      1
  1495  1490  1495      1
  1496  1495  1496      1
  1497  1495  1497      1
  1498  1495  1498      1
  1499  1496  1499      1
  1500  1496  1500      1
  1501  1496  1501      1
  1502  1501  1502      1
  1503  1501  1503      1
  1504  1501  1504      1
  1505  1502  1505      1
  1506  1502  1506      1
  1507  1502  1507      1
  1508  1507  1508      1
  1509  1507  1509      1
  1510  1507  1510      1
  1511  1508  1511      1
  1512  1508  1512      1
  1513  1508  1513      1
  1514  1513  1514      1
  1515  1513  1515      1
  1516  1513  1516      1
  1517  1514  1517      1
  1518  1514  1518      1
  1519  1514  1519      1
  1520  1519  1520      1
  1521  1519  1521      1
  1522  1519  1522      1
  1523  1520  1523      1
  1524  1520  1524      1
  1525  1520  1525      1
  1526  1525  1526      1
  1527  1525  1527      1
  1528  1525  1528      1
  1529  1526  1529      1
  1530  1526  1530      1
  1531  1526  1531      1
  1532  1531  1532      1
  1533  1531  1533      1
  1534  1531  1534      1
  1535  1532  1535      1
  1536  1532  1536      1
  1537  1532  1537      1
  1538  1537  1538      1
  1539  1537  1539      1
  1540  1537  1540      1
  1541  1538  1541      1
  1542  1538  1542      1
  1543  1538  1543      1
  1544  1543  1544      1
  1545  1543  1545      1
  1546  1543  1546      1
  1547  1544  1547      1
  1548  1544  1548      1
  1549  1544  1549      1
  1550  1549  1550      1
  1551  1549  1551      1
  1552  1549  1552      1
  1553  1550  1553      1
  1554  1550  1554      1
  1555  1550  1555      1
  1556  1555  1556      1
  1557  1555  1557      1
  1558  1555  1558      1
  1559  1556  1559      1
  1560  1556  1560      1
  1561  1556  1561      1
  1562  1561  1562      1
  1563  1561  1563      1
  1564  1561  1564      1
  1565  1562  1565      1
  1566  1562  1566      1
  1567  1562  1567      1
  1568  1567  1568      1
  1569  1567  1569      1
  1570  1567  1570      1
  1571  1568  1571      1
  1572  1568  1572      1
  1573  1568  1573      H
