###
### Created by PolyChef-cpp17 on Thu Feb 27 19:40:28 2025
###

@<TRIPOS>MOLECULE
NO_INFO
296 295 1 0 0
SMALL
USER_CHARGES


@<TRIPOS>ATOM
      1 C         149.2798   18.5487  -39.3449 C.3       0        0    0.0000
      2 C         147.8706   18.3882  -38.7641 C.3       0        0    0.0000
      3 H         149.9271   17.7366  -38.9913 H         0        0    0.0000
      4 H         149.7280   19.4855  -38.9913 H         0        0    0.0000
      5 H         147.3717   19.3639  -38.7123 H         0        0    0.0000
      6 H         147.2615   17.7575  -39.4235 H         0        0    0.0000
      7 C         147.8874   17.7527  -37.3312 C.3       1        0    0.0000
      8 C         149.1658   18.0960  -36.5585 C.3       1        0    0.0000
      9 H         147.0077   18.1042  -36.7780 H         1        0    0.0000
     10 H         147.7859   16.6644  -37.4258 H         1        0    0.0000
     11 H         150.0458   17.9155  -37.1881 H         1        0    0.0000
     12 H         149.1753   19.1627  -36.3021 H         1        0    0.0000
     13 C         149.3067   17.2583  -35.2410 C.3       2        0    0.0000
     14 C         150.2101   17.9444  -34.2103 C.3       2        0    0.0000
     15 H         148.3081   17.0957  -34.8168 H         2        0    0.0000
     16 H         149.7072   16.2684  -35.4925 H         2        0    0.0000
     17 H         151.2634   17.8171  -34.4894 H         2        0    0.0000
     18 H         150.0154   19.0240  -34.1989 H         2        0    0.0000
     19 C         149.9986   17.3775  -32.7641 C.3       3        0    0.0000
     20 C         150.6319   18.2708  -31.6917 C.3       3        0    0.0000
     21 H         148.9223   17.2731  -32.5792 H         3        0    0.0000
     22 H         150.4263   16.3685  -32.7138 H         3        0    0.0000
     23 H         151.7209   18.2999  -31.8214 H         3        0    0.0000
     24 H         150.2740   19.3020  -31.8017 H         3        0    0.0000
     25 C         150.3089   17.7760  -30.2397 C.3       4        0    0.0000
     26 C         150.9210   18.6837  -29.1671 C.3       4        0    0.0000
     27 H         149.2198   17.7291  -30.1162 H         4        0    0.0000
     28 H         150.6835   16.7514  -30.1238 H         4        0    0.0000
     29 H         152.0109   18.7237  -29.2854 H         4        0    0.0000
     30 H         150.5531   19.7101  -29.2884 H         4        0    0.0000
     31 C         150.5878   18.1958  -27.7151 C.3       5        0    0.0000
     32 C         151.2113   19.0957  -26.6425 C.3       5        0    0.0000
     33 H         149.4979   18.1654  -27.5936 H         5        0    0.0000
     34 H         150.9468   17.1658  -27.5971 H         5        0    0.0000
     35 H         152.3011   19.1270  -26.7648 H         5        0    0.0000
     36 H         150.8514   20.1254  -26.7598 H         5        0    0.0000
     37 C         150.8796   18.6068  -25.1905 C.3       6        0    0.0000
     38 C         151.4970   19.5108  -24.1179 C.3       6        0    0.0000
     39 H         149.7898   18.5704  -25.0700 H         6        0    0.0000
     40 H         151.2442   17.5789  -25.0716 H         6        0    0.0000
     41 H         152.5872   19.5446  -24.2365 H         6        0    0.0000
     42 H         151.1350   20.5393  -24.2388 H         6        0    0.0000
     43 C         151.1615   19.0244  -22.6659 C.3       7        0    0.0000
     44 C         152.3113   19.2839  -21.6863 C.3       7        0    0.0000
     45 H         150.2529   19.5348  -22.3231 H         7        0    0.0000
     46 H         150.9283   17.9529  -22.6970 H         7        0    0.0000
     47 H         153.2505   18.8925  -22.0964 H         7        0    0.0000
     48 H         152.4528   20.3631  -21.5496 H         7        0    0.0000
     49 C         152.0586   18.6260  -20.2860 C.3       8        0    0.0000
     50 C         152.1735   19.6372  -19.1399 C.3       8        0    0.0000
     51 H         151.0616   18.1683  -20.2851 H         8        0    0.0000
     52 H         152.7793   17.8115  -20.1426 H         8        0    0.0000
     53 H         153.2257   19.7688  -18.8585 H         8        0    0.0000
     54 H         151.8097   20.6192  -19.4668 H         8        0    0.0000
     55 C         151.3633   19.1941  -17.8732 C.3       9        0    0.0000
     56 C         152.2230   19.1947  -16.6043 C.3       9        0    0.0000
     57 H         150.5069   19.8681  -17.7476 H         9        0    0.0000
     58 H         150.9526   18.1921  -18.0488 H         9        0    0.0000
     59 H         153.2041   18.7511  -16.8144 H         9        0    0.0000
     60 H         152.4070   20.2249  -16.2751 H         9        0    0.0000
     61 C         151.5508   18.4018  -15.4309 C.3      10        0    0.0000
     62 C         151.9143   18.9774  -14.0577 C.3      10        0    0.0000
     63 H         150.4628   18.4192  -15.5700 H        10        0    0.0000
     64 H         151.8594   17.3508  -15.4919 H        10        0    0.0000
     65 H         152.9836   18.8318  -13.8599 H        10        0    0.0000
     66 H         151.7360   20.0597  -14.0443 H        10        0    0.0000
     67 C         151.0915   18.3153  -12.8993 C.3      11        0    0.0000
     68 C         151.5885   18.7450  -11.5146 C.3      11        0    0.0000
     69 H         150.0342   18.5824  -13.0190 H        11        0    0.0000
     70 H         151.1542   17.2246  -12.9996 H        11        0    0.0000
     71 H         152.6562   18.5154  -11.4102 H        11        0    0.0000
     72 H         151.4872   19.8313  -11.3990 H        11        0    0.0000
     73 C         150.8040   18.0382  -10.3560 C.3      12        0    0.0000
     74 C         151.2917   18.4783   -8.9713 C.3      12        0    0.0000
     75 H         149.7352   18.2596  -10.4662 H        12        0    0.0000
     76 H         150.9137   16.9522  -10.4658 H        12        0    0.0000
     77 H         152.3596   18.2533   -8.8596 H        12        0    0.0000
     78 H         151.1857   19.5648   -8.8629 H        12        0    0.0000
     79 C         150.5034   17.7757   -7.8127 C.3      13        0    0.0000
     80 C         150.9922   18.2146   -6.4280 C.3      13        0    0.0000
     81 H         149.4356   18.0017   -7.9237 H        13        0    0.0000
     82 H         150.6084   16.6891   -7.9217 H        13        0    0.0000
     83 H         152.0592   17.9853   -6.3156 H        13        0    0.0000
     84 H         150.8906   19.3016   -6.3203 H        13        0    0.0000
     85 C         150.2005   17.5157   -5.2694 C.3      14        0    0.0000
     86 C         150.6736   17.9722   -3.8849 C.3      14        0    0.0000
     87 H         149.1317   17.7309   -5.3916 H        14        0    0.0000
     88 H         150.3163   16.4292   -5.3672 H        14        0    0.0000
     89 H         151.7386   17.7421   -3.7565 H        14        0    0.0000
     90 H         150.5732   19.0608   -3.7930 H        14        0    0.0000
     91 C         149.8663   17.2907   -2.7267 C.3      15        0    0.0000
     92 C         150.3503   17.7346   -1.3419 C.3      15        0    0.0000
     93 H         148.8027   17.5308   -2.8482 H        15        0    0.0000
     94 H         149.9568   16.2019   -2.8257 H        15        0    0.0000
     95 H         151.4359   17.5981   -1.2613 H        15        0    0.0000
     96 H         150.1560   18.8050   -1.2007 H        15        0    0.0000
     97 C         149.6537   16.9378   -0.1855 C.3      16        0    0.0000
     98 C         150.1839   17.3367    1.1961 C.3      16        0    0.0000
     99 H         148.5718   17.1119   -0.2379 H        16        0    0.0000
    100 H         149.8086   15.8646   -0.3523 H        16        0    0.0000
    101 H         151.2707   17.1931    1.2378 H        16        0    0.0000
    102 H         149.9999   18.4031    1.3761 H        16        0    0.0000
    103 C         149.5201   16.5078    2.3492 C.3      17        0    0.0000
    104 C         150.0880   16.8697    3.7260 C.3      17        0    0.0000
    105 H         148.4370   16.6817    2.3315 H        17        0    0.0000
    106 H         149.6709   15.4397    2.1490 H        17        0    0.0000
    107 H         151.1740   16.7143    3.7376 H        17        0    0.0000
    108 H         149.9197   17.9335    3.9346 H        17        0    0.0000
    109 C         149.4439   16.0213    4.8761 C.3      18        0    0.0000
    110 C         150.0963   16.2956    6.2356 C.3      18        0    0.0000
    111 H         148.3708   16.2447    4.9219 H        18        0    0.0000
    112 H         149.5336   14.9574    4.6236 H        18        0    0.0000
    113 H         151.1748   16.1018    6.1812 H        18        0    0.0000
    114 H         149.9793   17.3532    6.5024 H        18        0    0.0000
    115 C         149.4818   15.4153    7.3779 C.3      19        0    0.0000
    116 C         150.5589   14.7508    8.2424 C.3      19        0    0.0000
    117 H         148.8352   16.0456    8.0010 H        19        0    0.0000
    118 H         148.8367   14.6509    6.9271 H        19        0    0.0000
    119 H         151.4138   14.4591    7.6199 H        19        0    0.0000
    120 H         150.9384   15.4640    8.9846 H        19        0    0.0000
    121 C         150.0216   13.4818    8.9897 C.3      20        0    0.0000
    122 C         149.8955   13.7072   10.5004 C.3      20        0    0.0000
    123 H         149.0465   13.2091    8.5673 H        20        0    0.0000
    124 H         150.6976   12.6412    8.7899 H        20        0    0.0000
    125 H         150.7821   13.3158   11.0144 H        20        0    0.0000
    126 H         149.8537   14.7816   10.7182 H        20        0    0.0000
    127 C         148.6199   13.0203   11.0992 C.3      21        0    0.0000
    128 C         148.9333   11.6550   11.7212 C.3      21        0    0.0000
    129 H         148.1812   13.6854   11.8532 H        21        0    0.0000
    130 H         147.8722   12.9088   10.3042 H        21        0    0.0000
    131 H         149.8778   11.2669   11.3203 H        21        0    0.0000
    132 H         149.0695   11.7577   12.8049 H        21        0    0.0000
    133 C         147.8006   10.6053   11.4516 C.3      22        0    0.0000
    134 C         148.3614    9.2186   11.1177 C.3      22        0    0.0000
    135 H         147.1548   10.5468   12.3365 H        22        0    0.0000
    136 H         147.1732   10.9659   10.6270 H        22        0    0.0000
    137 H         149.2646    9.3161   10.5027 H        22        0    0.0000
    138 H         148.6612    8.7024   12.0381 H        22        0    0.0000
    139 C         147.3235    8.3264   10.3532 C.3      23        0    0.0000
    140 C         146.8876    7.1085   11.1753 C.3      23        0    0.0000
    141 H         146.4506    8.9396   10.0974 H        23        0    0.0000
    142 H         147.7683    8.0004    9.4048 H        23        0    0.0000
    143 H         147.6202    6.2992   11.0662 H        23        0    0.0000
    144 H         146.8582    7.3653   12.2414 H        23        0    0.0000
    145 C         145.4776    6.5751   10.7450 C.3      24        0    0.0000
    146 C         145.4686    5.0561   10.5415 C.3      24        0    0.0000
    147 H         144.7443    6.8565   11.5109 H        24        0    0.0000
    148 H         145.1759    7.0805    9.8192 H        24        0    0.0000
    149 H         146.3855    4.7397   10.0289 H        24        0    0.0000
    150 H         145.4590    4.5465   11.5130 H        24        0    0.0000
    151 C         144.2316    4.5758    9.7068 C.3      25        0    0.0000
    152 C         144.4259    3.1654    9.1394 C.3      25        0    0.0000
    153 H         143.3407    4.6046   10.3464 H        25        0    0.0000
    154 H         144.0571    5.2886    8.8913 H        25        0    0.0000
    155 H         145.3795    3.1049    8.6004 H        25        0    0.0000
    156 H         144.4790    2.4352    9.9565 H        25        0    0.0000
    157 C         143.2685    2.7517    8.1665 C.3      26        0    0.0000
    158 C         143.7620    1.8579    7.0234 C.3      26        0    0.0000
    159 H         142.4918    2.2325    8.7415 H        26        0    0.0000
    160 H         142.8059    3.6600    7.7609 H        26        0    0.0000
    161 H         144.6614    2.2913    6.5685 H        26        0    0.0000
    162 H         144.0492    0.8733    7.4129 H        26        0    0.0000
    163 C         142.6760    1.6637    5.9098 C.3      27        0    0.0000
    164 C         143.2076    0.8682    4.7125 C.3      27        0    0.0000
    165 H         141.8094    1.1520    6.3465 H        27        0    0.0000
    166 H         142.3265    2.6501    5.5807 H        27        0    0.0000
    167 H         144.0942    1.3624    4.2962 H        27        0    0.0000
    168 H         143.5264   -0.1305    5.0360 H        27        0    0.0000
    169 C         142.1360    0.7139    3.5787 C.3      28        0    0.0000
    170 C         142.7129    0.0570    2.3198 C.3      28        0    0.0000
    171 H         141.2979    0.1193    3.9628 H        28        0    0.0000
    172 H         141.7337    1.7050    3.3352 H        28        0    0.0000
    173 H         143.5771    0.6288    1.9595 H        28        0    0.0000
    174 H         143.0776   -0.9506    2.5547 H        28        0    0.0000
    175 C         141.6570   -0.0441    1.1655 C.3      29        0    0.0000
    176 C         142.2990   -0.4031   -0.1791 C.3      29        0    0.0000
    177 H         140.9070   -0.7971    1.4372 H        29        0    0.0000
    178 H         141.1275    0.9135    1.0858 H        29        0    0.0000
    179 H         143.1147    0.2950   -0.4049 H        29        0    0.0000
    180 H         142.7459   -1.4036   -0.1274 H        29        0    0.0000
    181 C         141.2661   -0.3714   -1.3580 C.3      30        0    0.0000
    182 C         141.9501   -0.3615   -2.7295 C.3      30        0    0.0000
    183 H         140.6060   -1.2435   -1.2732 H        30        0    0.0000
    184 H         140.6311    0.5163   -1.2479 H        30        0    0.0000
    185 H         142.6891    0.4481   -2.7755 H        30        0    0.0000
    186 H         142.4996   -1.2986   -2.8826 H        30        0    0.0000
    187 C         140.9265   -0.1785   -3.9026 C.3      31        0    0.0000
    188 C         141.6029   -0.2293   -5.2769 C.3      31        0    0.0000
    189 H         140.1621   -0.9621   -3.8303 H        31        0    0.0000
    190 H         140.4084    0.7798   -3.7735 H        31        0    0.0000
    191 H         142.3512    0.5688   -5.3576 H        31        0    0.0000
    192 H         142.1403   -1.1782   -5.3969 H        31        0    0.0000
    193 C         140.5750   -0.0788   -6.4509 C.3      32        0    0.0000
    194 C         141.2468   -0.1654   -7.8258 C.3      32        0    0.0000
    195 H         139.8118   -0.8610   -6.3552 H        32        0    0.0000
    196 H         140.0562    0.8821   -6.3456 H        32        0    0.0000
    197 H         142.0016    0.6243   -7.9261 H        32        0    0.0000
    198 H         141.7757   -1.1213   -7.9265 H        32        0    0.0000
    199 C         140.2166   -0.0319   -8.9998 C.3      33        0    0.0000
    200 C         140.8887   -0.1155  -10.3747 C.3      33        0    0.0000
    201 H         139.4630   -0.8230   -8.9008 H        33        0    0.0000
    202 H         139.6862    0.9230   -8.8979 H        33        0    0.0000
    203 H         141.6410    0.6768  -10.4745 H        33        0    0.0000
    204 H         141.4208   -1.0696  -10.4759 H        33        0    0.0000
    205 C         139.8582    0.0154  -11.5487 C.3      34        0    0.0000
    206 C         140.5306   -0.0662  -12.9236 C.3      34        0    0.0000
    207 H         139.1069   -0.7779  -11.4498 H        34        0    0.0000
    208 H         139.3251    0.9687  -11.4467 H        34        0    0.0000
    209 H         141.2808    0.7281  -13.0232 H        34        0    0.0000
    210 H         141.0652   -1.0189  -13.0250 H        34        0    0.0000
    211 C         139.4998    0.0622  -14.0977 C.3      35        0    0.0000
    212 C         140.1720   -0.0207  -15.4725 C.3      35        0    0.0000
    213 H         138.7491   -0.7315  -13.9975 H        35        0    0.0000
    214 H         138.9659    1.0153  -13.9968 H        35        0    0.0000
    215 H         140.9233    0.7725  -15.5723 H        35        0    0.0000
    216 H         140.7051   -0.9741  -15.5737 H        35        0    0.0000
    217 C         139.1414    0.1090  -16.6466 C.3      36        0    0.0000
    218 C         139.8133    0.0241  -18.0214 C.3      36        0    0.0000
    219 H         138.3892   -0.6832  -16.5459 H        36        0    0.0000
    220 H         138.6093    1.0631  -16.5462 H        36        0    0.0000
    221 H         140.5650    0.8168  -18.1224 H        36        0    0.0000
    222 H         140.3460   -0.9298  -18.1215 H        36        0    0.0000
    223 C         138.7825    0.1527  -19.1955 C.3      37        0    0.0000
    224 C         139.4545    0.0677  -20.5704 C.3      37        0    0.0000
    225 H         138.0309   -0.6399  -19.0945 H        37        0    0.0000
    226 H         138.2499    1.1066  -19.0955 H        37        0    0.0000
    227 H         140.2100    0.8570  -20.6693 H        37        0    0.0000
    228 H         139.9827   -0.8884  -20.6724 H        37        0    0.0000
    229 C         138.4247    0.2039  -21.7444 C.3      38        0    0.0000
    230 C         139.0966    0.1181  -23.1193 C.3      38        0    0.0000
    231 H         137.6689   -0.5851  -21.6452 H        38        0    0.0000
    232 H         137.8969    1.1603  -21.6426 H        38        0    0.0000
    233 H         139.8318    0.9248  -23.2296 H        38        0    0.0000
    234 H         139.6484   -0.8257  -23.2101 H        38        0    0.0000
    235 C         138.0619    0.2135  -24.2931 C.3      39        0    0.0000
    236 C         138.7342    0.1318  -25.6680 C.3      39        0    0.0000
    237 H         137.3284   -0.5950  -24.1844 H        39        0    0.0000
    238 H         137.5080    1.1559  -24.2006 H        39        0    0.0000
    239 H         139.0867   -0.8903  -25.8543 H        39        0    0.0000
    240 H         138.0073    0.3629  -26.4565 H        39        0    0.0000
    241 C         139.9478    1.1159  -25.7954 C.3      40        0    0.0000
    242 C         140.6621    0.9857  -27.1451 C.3      40        0    0.0000
    243 H         139.5863    2.1426  -25.6586 H        40        0    0.0000
    244 H         140.6510    0.9178  -24.9770 H        40        0    0.0000
    245 H         140.7272    1.9664  -27.6324 H        40        0    0.0000
    246 H         141.6922    0.6401  -26.9938 H        40        0    0.0000
    247 C         139.9316   -0.0105  -28.1102 C.3      41        0    0.0000
    248 C         140.3738    0.1628  -29.5674 C.3      41        0    0.0000
    249 H         140.1305   -1.0364  -27.7762 H        41        0    0.0000
    250 H         138.8488    0.1442  -28.0248 H        41        0    0.0000
    251 H         140.6209    1.2136  -29.7631 H        41        0    0.0000
    252 H         141.2870   -0.4157  -29.7547 H        41        0    0.0000
    253 C         139.2694   -0.2940  -30.5818 C.3      42        0    0.0000
    254 C         139.7104   -0.1176  -32.0390 C.3      42        0    0.0000
    255 H         139.0240   -1.3455  -30.3877 H        42        0    0.0000
    256 H         138.3555    0.2828  -30.3929 H        42        0    0.0000
    257 H         139.9749    0.9302  -32.2278 H        42        0    0.0000
    258 H         140.6129   -0.7102  -32.2332 H        42        0    0.0000
    259 C         138.5954   -0.5478  -33.0534 C.3      43        0    0.0000
    260 C         139.0366   -0.3720  -34.5106 C.3      43        0    0.0000
    261 H         138.3305   -1.5955  -32.8644 H        43        0    0.0000
    262 H         137.6930    0.0451  -32.8594 H        43        0    0.0000
    263 H         138.3038   -0.8338  -35.1839 H        43        0    0.0000
    264 H         139.0718    0.6941  -34.7669 H        43        0    0.0000
    265 C         140.4443   -1.0046  -34.7856 C.3      44        0    0.0000
    266 C         140.9264   -0.7487  -36.2178 C.3      44        0    0.0000
    267 H         141.1637   -0.5923  -34.0672 H        44        0    0.0000
    268 H         140.3907   -2.0834  -34.5938 H        44        0    0.0000
    269 H         141.8192   -0.1114  -36.2059 H        44        0    0.0000
    270 H         141.2205   -1.6942  -36.6902 H        44        0    0.0000
    271 C         139.8277   -0.0629  -37.1008 C.3      45        0    0.0000
    272 C         140.1938   -0.0649  -38.5891 C.3      45        0    0.0000
    273 H         138.8745   -0.5838  -36.9473 H        45        0    0.0000
    274 H         139.6840    0.9667  -36.7502 H        45        0    0.0000
    275 H         140.9578    0.6965  -38.7896 H        45        0    0.0000
    276 H         140.6318   -1.0315  -38.8674 H        45        0    0.0000
    277 C         138.9530    0.2105  -39.5066 C.3      46        0    0.0000
    278 C         139.3148    0.1861  -40.9958 C.3      46        0    0.0000
    279 H         138.1825   -0.5410  -39.2944 H        46        0    0.0000
    280 H         138.5249    1.1847  -39.2395 H        46        0    0.0000
    281 H         138.7368   -0.5913  -41.5106 H        46        0    0.0000
    282 H         139.0456    1.1410  -41.4640 H        46        0    0.0000
    283 C         140.8416   -0.0798  -41.2318 C.3      47        0    0.0000
    284 C         141.1599   -0.3713  -42.7025 C.3      47        0    0.0000
    285 H         141.4097    0.7943  -40.8901 H        47        0    0.0000
    286 H         141.1547   -0.9238  -40.6048 H        47        0    0.0000
    287 H         140.9400    0.5107  -43.3169 H        47        0    0.0000
    288 H         142.2304   -0.5792  -42.8216 H        47        0    0.0000
    289 C         140.3437   -1.5895  -43.2568 C.3      48        0    0.0000
    290 C         141.2438   -2.6392  -43.9178 C.3      48        0    0.0000
    291 H         139.7806   -2.0427  -42.4316 H        48        0    0.0000
    292 H         139.6038   -1.2206  -43.9780 H        48        0    0.0000
    293 H         141.8070   -2.1859  -44.7430 H        48        0    0.0000
    294 H         141.9837   -3.0080  -43.1967 H        48        0    0.0000
    295 H         140.6763   -3.4862  -44.3033 H        48        0    0.0000
    296 H         149.2798   18.5487  -40.4349 H         0        0    0.0000
@<TRIPOS>BOND
     1     1     2      1
     2     1     3      1
     3     1     4      1
     4     1   296      H
     5     2     5      1
     6     2     6      1
     7     2     7      1
     8     7     8      1
     9     7     9      1
    10     7    10      1
    11     8    11      1
    12     8    12      1
    13     8    13      1
    14    13    14      1
    15    13    15      1
    16    13    16      1
    17    14    17      1
    18    14    18      1
    19    14    19      1
    20    19    20      1
    21    19    21      1
    22    19    22      1
    23    20    23      1
    24    20    24      1
    25    20    25      1
    26    25    26      1
    27    25    27      1
    28    25    28      1
    29    26    29      1
    30    26    30      1
    31    26    31      1
    32    31    32      1
    33    31    33      1
    34    31    34      1
    35    32    35      1
    36    32    36      1
    37    32    37      1
    38    37    38      1
    39    37    39      1
    40    37    40      1
    41    38    41      1
    42    38    42      1
    43    38    43      1
    44    43    44      1
    45    43    45      1
    46    43    46      1
    47    44    47      1
    48    44    48      1
    49    44    49      1
    50    49    50      1
    51    49    51      1
    52    49    52      1
    53    50    53      1
    54    50    54      1
    55    50    55      1
    56    55    56      1
    57    55    57      1
    58    55    58      1
    59    56    59      1
    60    56    60      1
    61    56    61      1
    62    61    62      1
    63    61    63      1
    64    61    64      1
    65    62    65      1
    66    62    66      1
    67    62    67      1
    68    67    68      1
    69    67    69      1
    70    67    70      1
    71    68    71      1
    72    68    72      1
    73    68    73      1
    74    73    74      1
    75    73    75      1
    76    73    76      1
    77    74    77      1
    78    74    78      1
    79    74    79      1
    80    79    80      1
    81    79    81      1
    82    79    82      1
    83    80    83      1
    84    80    84      1
    85    80    85      1
    86    85    86      1
    87    85    87      1
    88    85    88      1
    89    86    89      1
    90    86    90      1
    91    86    91      1
    92    91    92      1
    93    91    93      1
    94    91    94      1
    95    92    95      1
    96    92    96      1
    97    92    97      1
    98    97    98      1
    99    97    99      1
   100    97   100      1
   101    98   101      1
   102    98   102      1
   103    98   103      1
   104   103   104      1
   105   103   105      1
   106   103   106      1
   107   104   107      1
   108   104   108      1
   109   104   109      1
   110   109   110      1
   111   109   111      1
   112   109   112      1
   113   110   113      1
   114   110   114      1
   115   110   115      1
   116   115   116      1
   117   115   117      1
   118   115   118      1
   119   116   119      1
   120   116   120      1
   121   116   121      1
   122   121   122      1
   123   121   123      1
   124   121   124      1
   125   122   125      1
   126   122   126      1
   127   122   127      1
   128   127   128      1
   129   127   129      1
   130   127   130      1
   131   128   131      1
   132   128   132      1
   133   128   133      1
   134   133   134      1
   135   133   135      1
   136   133   136      1
   137   134   137      1
   138   134   138      1
   139   134   139      1
   140   139   140      1
   141   139   141      1
   142   139   142      1
   143   140   143      1
   144   140   144      1
   145   140   145      1
   146   145   146      1
   147   145   147      1
   148   145   148      1
   149   146   149      1
   150   146   150      1
   151   146   151      1
   152   151   152      1
   153   151   153      1
   154   151   154      1
   155   152   155      1
   156   152   156      1
   157   152   157      1
   158   157   158      1
   159   157   159      1
   160   157   160      1
   161   158   161      1
   162   158   162      1
   163   158   163      1
   164   163   164      1
   165   163   165      1
   166   163   166      1
   167   164   167      1
   168   164   168      1
   169   164   169      1
   170   169   170      1
   171   169   171      1
   172   169   172      1
   173   170   173      1
   174   170   174      1
   175   170   175      1
   176   175   176      1
   177   175   177      1
   178   175   178      1
   179   176   179      1
   180   176   180      1
   181   176   181      1
   182   181   182      1
   183   181   183      1
   184   181   184      1
   185   182   185      1
   186   182   186      1
   187   182   187      1
   188   187   188      1
   189   187   189      1
   190   187   190      1
   191   188   191      1
   192   188   192      1
   193   188   193      1
   194   193   194      1
   195   193   195      1
   196   193   196      1
   197   194   197      1
   198   194   198      1
   199   194   199      1
   200   199   200      1
   201   199   201      1
   202   199   202      1
   203   200   203      1
   204   200   204      1
   205   200   205      1
   206   205   206      1
   207   205   207      1
   208   205   208      1
   209   206   209      1
   210   206   210      1
   211   206   211      1
   212   211   212      1
   213   211   213      1
   214   211   214      1
   215   212   215      1
   216   212   216      1
   217   212   217      1
   218   217   218      1
   219   217   219      1
   220   217   220      1
   221   218   221      1
   222   218   222      1
   223   218   223      1
   224   223   224      1
   225   223   225      1
   226   223   226      1
   227   224   227      1
   228   224   228      1
   229   224   229      1
   230   229   230      1
   231   229   231      1
   232   229   232      1
   233   230   233      1
   234   230   234      1
   235   230   235      1
   236   235   236      1
   237   235   237      1
   238   235   238      1
   239   236   239      1
   240   236   240      1
   241   236   241      1
   242   241   242      1
   243   241   243      1
   244   241   244      1
   245   242   245      1
   246   242   246      1
   247   242   247      1
   248   247   248      1
   249   247   249      1
   250   247   250      1
   251   248   251      1
   252   248   252      1
   253   248   253      1
   254   253   254      1
   255   253   255      1
   256   253   256      1
   257   254   257      1
   258   254   258      1
   259   254   259      1
   260   259   260      1
   261   259   261      1
   262   259   262      1
   263   260   263      1
   264   260   264      1
   265   260   265      1
   266   265   266      1
   267   265   267      1
   268   265   268      1
   269   266   269      1
   270   266   270      1
   271   266   271      1
   272   271   272      1
   273   271   273      1
   274   271   274      1
   275   272   275      1
   276   272   276      1
   277   272   277      1
   278   277   278      1
   279   277   279      1
   280   277   280      1
   281   278   281      1
   282   278   282      1
   283   278   283      1
   284   283   284      1
   285   283   285      1
   286   283   286      1
   287   284   287      1
   288   284   288      1
   289   284   289      1
   290   289   290      1
   291   289   291      1
   292   289   292      1
   293   290   293      1
   294   290   294      1
   295   290   295      H
