###
### Created by PolyChef-cpp17 on Thu Feb 27 19:40:28 2025
###

@<TRIPOS>MOLECULE
NO_INFO
308 307 1 0 0
SMALL
USER_CHARGES


@<TRIPOS>ATOM
      1 C          69.2798   87.8287  120.6551 C.3       0        0    0.0000
      2 C          68.4513   86.6775  120.0742 C.3       0        0    0.0000
      3 H          68.8875   88.7902  120.3014 H         0        0    0.0000
      4 H          70.3162   87.7621  120.3014 H         0        0    0.0000
      5 H          68.4070   85.8474  120.7900 H         0        0    0.0000
      6 H          67.4176   87.0049  119.9072 H         0        0    0.0000
      7 C          69.0382   86.1469  118.7209 C.3       1        0    0.0000
      8 C          69.6365   87.2704  117.8671 C.3       1        0    0.0000
      9 H          69.8037   85.3920  118.9392 H         1        0    0.0000
     10 H          68.2415   85.6363  118.1659 H         1        0    0.0000
     11 H          68.9462   88.1222  117.8289 H         1        0    0.0000
     12 H          70.5641   87.6369  118.3241 H         1        0    0.0000
     13 C          69.9448   86.8038  116.4026 C.3       2        0    0.0000
     14 C          69.8897   87.9619  115.4003 C.3       2        0    0.0000
     15 H          70.9366   86.3354  116.3821 H         2        0    0.0000
     16 H          69.2236   86.0269  116.1198 H         2        0    0.0000
     17 H          68.9714   88.5437  115.5477 H         2        0    0.0000
     18 H          70.7283   88.6481  115.5719 H         2        0    0.0000
     19 C          69.9397   87.4646  113.9144 C.3       3        0    0.0000
     20 C          69.8334   88.6188  112.9117 C.3       3        0    0.0000
     21 H          70.8758   86.9146  113.7570 H         3        0    0.0000
     22 H          69.1233   86.7497  113.7532 H         3        0    0.0000
     23 H          68.9027   89.1758  113.0766 H         3        0    0.0000
     24 H          70.6563   89.3278  113.0655 H         3        0    0.0000
     25 C          69.8671   88.1200  111.4259 C.3       4        0    0.0000
     26 C          69.9504   89.2785  110.4260 C.3       4        0    0.0000
     27 H          70.7260   87.4497  111.2974 H         4        0    0.0000
     28 H          68.9684   87.5209  111.2335 H         4        0    0.0000
     29 H          69.0773   89.9338  110.5359 H         4        0    0.0000
     30 H          70.8342   89.8936  110.6357 H         4        0    0.0000
     31 C          70.0232   88.7785  108.9420 C.3       5        0    0.0000
     32 C          69.0094   89.4897  108.0390 C.3       5        0    0.0000
     33 H          71.0407   88.9388  108.5644 H         5        0    0.0000
     34 H          69.8477   87.6957  108.9247 H         5        0    0.0000
     35 H          68.0463   89.5839  108.5560 H         5        0    0.0000
     36 H          69.3505   90.5092  107.8204 H         5        0    0.0000
     37 C          68.7844   88.7311  106.6858 C.3       6        0    0.0000
     38 C          69.2024   89.5700  105.4731 C.3       6        0    0.0000
     39 H          69.3523   87.7927  106.7078 H         6        0    0.0000
     40 H          67.7252   88.4565  106.6062 H         6        0    0.0000
     41 H          68.3623   90.1906  105.1374 H         6        0    0.0000
     42 H          70.0103   90.2577  105.7520 H         6        0    0.0000
     43 C          69.6854   88.6824  104.2747 C.3       7        0    0.0000
     44 C          69.1567   89.1875  102.9277 C.3       7        0    0.0000
     45 H          70.7823   88.6664  104.2661 H         7        0    0.0000
     46 H          69.3566   87.6496  104.4445 H         7        0    0.0000
     47 H          68.0808   89.3898  102.9979 H         7        0    0.0000
     48 H          69.6395   90.1373  102.6663 H         7        0    0.0000
     49 C          69.4032   88.1600  101.7697 C.3       8        0    0.0000
     50 C          69.2539   88.7990  100.3846 C.3       8        0    0.0000
     51 H          70.4085   87.7354  101.8816 H         8        0    0.0000
     52 H          68.6960   87.3283  101.8784 H         8        0    0.0000
     53 H          68.2266   89.1578  100.2446 H         8        0    0.0000
     54 H          69.9078   89.6760  100.3025 H         8        0    0.0000
     55 C          69.6018   87.7992   99.2284 C.3       9        0    0.0000
     56 C          69.4019   88.4218   97.8423 C.3       9        0    0.0000
     57 H          70.6416   87.4701   99.3465 H         9        0    0.0000
     58 H          68.9746   86.9053   99.3333 H         9        0    0.0000
     59 H          68.3647   88.7607   97.7281 H         9        0    0.0000
     60 H          70.0371   89.3097   97.7335 H         9        0    0.0000
     61 C          69.7354   87.4172   96.6860 C.3      10        0    0.0000
     62 C          69.5228   88.0357   95.2999 C.3      10        0    0.0000
     63 H          70.7756   87.0859   96.7945 H        10        0    0.0000
     64 H          69.1071   86.5252   96.8003 H        10        0    0.0000
     65 H          68.4824   88.3660   95.1909 H        10        0    0.0000
     66 H          70.1504   88.9283   95.1859 H        10        0    0.0000
     67 C          69.8578   87.0316   94.1436 C.3      11        0    0.0000
     68 C          69.6476   87.6508   92.7574 C.3      11        0    0.0000
     69 H          70.8977   86.6998   94.2536 H        11        0    0.0000
     70 H          69.2290   86.1397   94.2564 H        11        0    0.0000
     71 H          68.6071   87.9802   92.6464 H        11        0    0.0000
     72 H          70.2745   88.5442   92.6455 H        11        0    0.0000
     73 C          69.9862   86.6479   91.6011 C.3      12        0    0.0000
     74 C          69.7766   87.2674   90.2150 C.3      12        0    0.0000
     75 H          71.0266   86.3181   91.7124 H        12        0    0.0000
     76 H          69.3590   85.7548   91.7128 H        12        0    0.0000
     77 H          68.7369   87.5998   90.1048 H        12        0    0.0000
     78 H          70.4060   88.1588   90.1023 H        12        0    0.0000
     79 C          70.1112   86.2631   89.0587 C.3      13        0    0.0000
     80 C          69.9048   86.8836   87.6726 C.3      13        0    0.0000
     81 H          71.1501   85.9288   89.1703 H        13        0    0.0000
     82 H          69.4801   85.3727   89.1700 H        13        0    0.0000
     83 H          68.8633   87.2085   87.5572 H        13        0    0.0000
     84 H          70.5281   87.7800   87.5651 H        13        0    0.0000
     85 C          70.2534   85.8841   86.5163 C.3      14        0    0.0000
     86 C          70.0445   86.5038   85.1302 C.3      14        0    0.0000
     87 H          71.2955   85.5607   86.6306 H        14        0    0.0000
     88 H          69.6315   84.9870   86.6249 H        14        0    0.0000
     89 H          68.9771   86.6892   84.9580 H        14        0    0.0000
     90 H          70.5465   87.4776   85.0739 H        14        0    0.0000
     91 C          70.5898   85.5871   83.9813 C.3      15        0    0.0000
     92 C          70.3821   86.2074   82.5952 C.3      15        0    0.0000
     93 H          71.6571   85.4009   84.1540 H        15        0    0.0000
     94 H          70.0871   84.6136   84.0370 H        15        0    0.0000
     95 H          69.5929   86.9682   82.6380 H        15        0    0.0000
     96 H          71.2965   86.7198   82.2716 H        15        0    0.0000
     97 C          69.9943   85.1371   81.5175 C.3      16        0    0.0000
     98 C          69.8590   85.7453   80.1172 C.3      16        0    0.0000
     99 H          70.7562   84.3478   81.5128 H        16        0    0.0000
    100 H          69.0508   84.6623   81.8142 H        16        0    0.0000
    101 H          69.0071   86.4359   80.0878 H        16        0    0.0000
    102 H          70.7516   86.3356   79.8757 H        16        0    0.0000
    103 C          69.6617   84.6521   79.0111 C.3      17        0    0.0000
    104 C          69.4910   85.2620   77.6155 C.3      17        0    0.0000
    105 H          70.5261   83.9767   79.0233 H        17        0    0.0000
    106 H          68.7841   84.0452   79.2663 H        17        0    0.0000
    107 H          68.6942   86.0160   77.6294 H        17        0    0.0000
    108 H          70.4104   85.7807   77.3166 H        17        0    0.0000
    109 C          69.1456   84.1818   76.5332 C.3      18        0    0.0000
    110 C          68.9730   84.7921   75.1379 C.3      18        0    0.0000
    111 H          69.9431   83.4286   76.5183 H        18        0    0.0000
    112 H          68.2271   83.6622   76.8328 H        18        0    0.0000
    113 H          68.2126   85.5824   75.1644 H        18        0    0.0000
    114 H          69.9087   85.2660   74.8162 H        18        0    0.0000
    115 C          68.5544   83.7237   74.0698 C.3      19        0    0.0000
    116 C          68.2911   84.3487   72.6954 C.3      19        0    0.0000
    117 H          69.3475   82.9695   73.9944 H        19        0    0.0000
    118 H          67.6565   83.2024   74.4242 H        19        0    0.0000
    119 H          67.5361   85.1400   72.7803 H        19        0    0.0000
    120 H          69.2046   84.8241   72.3171 H        19        0    0.0000
    121 C          67.8000   83.2921   71.6466 C.3      20        0    0.0000
    122 C          66.5821   83.7818   70.8553 C.3      20        0    0.0000
    123 H          68.6260   83.0630   70.9620 H        20        0    0.0000
    124 H          67.5577   82.3595   72.1710 H        20        0    0.0000
    125 H          65.9188   84.3632   71.5076 H        20        0    0.0000
    126 H          66.9023   84.4553   70.0507 H        20        0    0.0000
    127 C          65.7656   82.5991   70.2293 C.3      21        0    0.0000
    128 C          64.2525   82.8243   70.3229 C.3      21        0    0.0000
    129 H          66.0640   82.4796   69.1804 H        21        0    0.0000
    130 H          66.0400   81.6692   70.7428 H        21        0    0.0000
    131 H          64.0204   83.4692   71.1795 H        21        0    0.0000
    132 H          63.8941   83.3481   69.4280 H        21        0    0.0000
    133 C          63.4599   81.4802   70.4730 C.3      22        0    0.0000
    134 C          62.9947   80.9261   69.1218 C.3      22        0    0.0000
    135 H          64.0996   80.7472   70.9800 H        22        0    0.0000
    136 H          62.5959   81.6503   71.1274 H        22        0    0.0000
    137 H          61.9540   81.2178   68.9338 H        22        0    0.0000
    138 H          63.5944   81.3586   68.3113 H        22        0    0.0000
    139 C          63.1022   79.3638   69.0516 C.3      23        0    0.0000
    140 C          63.6213   78.8777   67.6939 C.3      23        0    0.0000
    141 H          63.7663   79.0186   69.8537 H        23        0    0.0000
    142 H          62.1140   78.9319   69.2529 H        23        0    0.0000
    143 H          62.8009   78.8480   66.9662 H        23        0    0.0000
    144 H          64.3651   79.5822   67.3014 H        23        0    0.0000
    145 C          64.2710   77.4538   67.7814 C.3      24        0    0.0000
    146 C          63.4040   76.3779   67.1182 C.3      24        0    0.0000
    147 H          65.2593   77.4862   67.3062 H        24        0    0.0000
    148 H          64.4371   77.2051   68.8369 H        24        0    0.0000
    149 H          62.7019   76.8418   66.4143 H        24        0    0.0000
    150 H          64.0330   75.6962   66.5325 H        24        0    0.0000
    151 C          62.5909   75.5413   68.1653 C.3      25        0    0.0000
    152 C          62.7618   74.0319   67.9615 C.3      25        0    0.0000
    153 H          62.9171   75.8240   69.1739 H        25        0    0.0000
    154 H          61.5309   75.8136   68.0892 H        25        0    0.0000
    155 H          61.9672   73.6480   67.3098 H        25        0    0.0000
    156 H          63.7124   73.8260   67.4541 H        25        0    0.0000
    157 C          62.7304   73.2423   69.3154 C.3      26        0    0.0000
    158 C          61.5927   72.2164   69.3633 C.3      26        0    0.0000
    159 H          63.6958   72.7402   69.4544 H        26        0    0.0000
    160 H          62.6261   73.9583   70.1400 H        26        0    0.0000
    161 H          60.7135   72.6047   68.8343 H        26        0    0.0000
    162 H          61.8925   71.2978   68.8439 H        26        0    0.0000
    163 C          61.1801   71.8549   70.8318 C.3      27        0    0.0000
    164 C          61.2071   70.3439   71.0875 C.3      27        0    0.0000
    165 H          61.8588   72.3660   71.5258 H        27        0    0.0000
    166 H          60.1754   72.2511   71.0245 H        27        0    0.0000
    167 H          60.3179   69.8726   70.6508 H        27        0    0.0000
    168 H          62.0770   69.8942   70.5929 H        27        0    0.0000
    169 C          61.2617   70.0009   72.6161 C.3      28        0    0.0000
    170 C          59.9990   69.2756   73.0941 C.3      28        0    0.0000
    171 H          62.1467   69.3818   72.8082 H        28        0    0.0000
    172 H          61.3986   70.9305   73.1824 H        28        0    0.0000
    173 H          59.1292   69.6153   72.5182 H        28        0    0.0000
    174 H          60.0939   68.1974   72.9148 H        28        0    0.0000
    175 C          59.7193   69.5117   74.6184 C.3      29        0    0.0000
    176 C          59.7056   68.2029   75.4159 C.3      29        0    0.0000
    177 H          60.4854   70.1877   75.0179 H        29        0    0.0000
    178 H          58.7570   70.0276   74.7256 H        29        0    0.0000
    179 H          58.7402   67.6968   75.2917 H        29        0    0.0000
    180 H          60.4718   67.5192   75.0300 H        29        0    0.0000
    181 C          59.9606   68.4363   76.9450 C.3      30        0    0.0000
    182 C          59.1509   67.4752   77.8223 C.3      30        0    0.0000
    183 H          61.0324   68.3176   77.1469 H        30        0    0.0000
    184 H          59.7068   69.4748   77.1913 H        30        0    0.0000
    185 H          58.1030   67.4620   77.4978 H        30        0    0.0000
    186 H          59.5291   66.4518   77.7073 H        30        0    0.0000
    187 C          59.2053   67.8666   79.3393 C.3      31        0    0.0000
    188 C          59.1244   66.6426   80.2582 C.3      31        0    0.0000
    189 H          60.1343   68.4185   79.5289 H        31        0    0.0000
    190 H          58.3796   68.5554   79.5566 H        31        0    0.0000
    191 H          58.1322   66.1807   80.1829 H        31        0    0.0000
    192 H          59.8500   65.8841   79.9393 H        31        0    0.0000
    193 C          59.3998   67.0064   81.7579 C.3      32        0    0.0000
    194 C          58.2637   66.5563   82.6829 C.3      32        0    0.0000
    195 H          60.3437   66.5405   82.0672 H        32        0    0.0000
    196 H          59.5428   68.0911   81.8381 H        32        0    0.0000
    197 H          57.3003   66.6440   82.1656 H        32        0    0.0000
    198 H          58.3868   65.4974   82.9421 H        32        0    0.0000
    199 C          58.2056   67.3966   84.0050 C.3      33        0    0.0000
    200 C          58.7053   66.6052   85.2187 C.3      33        0    0.0000
    201 H          58.8078   68.3042   83.8738 H        33        0    0.0000
    202 H          57.1721   67.7254   84.1699 H        33        0    0.0000
    203 H          57.8707   66.0700   85.6883 H        33        0    0.0000
    204 H          59.4281   65.8441   84.8998 H        33        0    0.0000
    205 C          59.3820   67.5268   86.2912 C.3      34        0    0.0000
    206 C          59.0909   67.0627   87.7226 C.3      34        0    0.0000
    207 H          60.4644   67.5408   86.1131 H        34        0    0.0000
    208 H          59.0261   68.5548   86.1493 H        34        0    0.0000
    209 H          58.0205   66.8528   87.8397 H        34        0    0.0000
    210 H          59.6204   66.1242   87.9288 H        34        0    0.0000
    211 C          59.5167   68.1282   88.7908 C.3      35        0    0.0000
    212 C          59.2977   67.6329   90.2246 C.3      35        0    0.0000
    213 H          60.5733   68.3803   88.6371 H        35        0    0.0000
    214 H          58.9450   69.0487   88.6193 H        35        0    0.0000
    215 H          58.2384   67.3956   90.3829 H        35        0    0.0000
    216 H          59.8570   66.7039   90.3911 H        35        0    0.0000
    217 C          59.7440   68.6898   91.2929 C.3      36        0    0.0000
    218 C          59.5347   68.1904   92.7267 C.3      36        0    0.0000
    219 H          60.8013   68.9328   91.1297 H        36        0    0.0000
    220 H          59.1792   69.6163   91.1310 H        36        0    0.0000
    221 H          58.4769   67.9498   92.8905 H        36        0    0.0000
    222 H          60.0975   67.2626   92.8878 H        36        0    0.0000
    223 C          59.9841   69.2460   93.7950 C.3      37        0    0.0000
    224 C          59.7759   68.7462   95.2288 C.3      37        0    0.0000
    225 H          61.0415   69.4873   93.6306 H        37        0    0.0000
    226 H          59.4206   70.1735   93.6344 H        37        0    0.0000
    227 H          58.7186   68.5035   95.3928 H        37        0    0.0000
    228 H          60.3404   67.8194   95.3898 H        37        0    0.0000
    229 C          60.2234   69.8025   96.2971 C.3      38        0    0.0000
    230 C          60.0136   69.3034   97.7309 C.3      38        0    0.0000
    231 H          61.2810   70.0442   96.1339 H        38        0    0.0000
    232 H          59.6598   70.7297   96.1353 H        38        0    0.0000
    233 H          58.9576   69.0528   97.8913 H        38        0    0.0000
    234 H          60.5847   68.3813   97.8956 H        38        0    0.0000
    235 C          60.4488   70.3649   98.7992 C.3      39        0    0.0000
    236 C          60.2409   69.8649  100.2330 C.3      39        0    0.0000
    237 H          61.5044   70.6165   98.6380 H        39        0    0.0000
    238 H          59.8767   71.2865   98.6355 H        39        0    0.0000
    239 H          59.1813   69.6362  100.4017 H        39        0    0.0000
    240 H          60.7937   68.9303  100.3894 H        39        0    0.0000
    241 C          60.7078   70.9130  101.3012 C.3      40        0    0.0000
    242 C          60.4966   70.4145  102.7351 C.3      40        0    0.0000
    243 H          61.7681   71.1397  101.1342 H        40        0    0.0000
    244 H          60.1569   71.8484  101.1432 H        40        0    0.0000
    245 H          61.2194   69.6230  102.9685 H        40        0    0.0000
    246 H          60.6799   71.2286  103.4472 H        40        0    0.0000
    247 C          59.0484   69.8597  102.9639 C.3      41        0    0.0000
    248 C          58.8782   69.2355  104.3533 C.3      41        0    0.0000
    249 H          58.3306   70.6783  102.8288 H        41        0    0.0000
    250 H          58.8279   69.1162  102.1879 H        41        0    0.0000
    251 H          57.9711   69.6248  104.8320 H        41        0    0.0000
    252 H          58.7466   68.1500  104.2645 H        41        0    0.0000
    253 C          60.1046   69.5211  105.2871 C.3      42        0    0.0000
    254 C          59.8033   69.2017  106.7555 C.3      42        0    0.0000
    255 H          60.9590   68.9267  104.9405 H        42        0    0.0000
    256 H          60.3908   70.5750  105.1825 H        42        0    0.0000
    257 H          58.7681   69.4747  106.9952 H        42        0    0.0000
    258 H          59.8934   68.1227  106.9319 H        42        0    0.0000
    259 C          60.7650   69.9562  107.7370 C.3      43        0    0.0000
    260 C          60.4495   69.6541  109.2061 C.3      43        0    0.0000
    261 H          61.7992   69.6707  107.5080 H        43        0    0.0000
    262 H          60.6869   71.0343  107.5496 H        43        0    0.0000
    263 H          60.7382   68.6238  109.4487 H        43        0    0.0000
    264 H          61.0391   70.3087  109.8598 H        43        0    0.0000
    265 C          58.9294   69.8444  109.5386 C.3      44        0    0.0000
    266 C          58.6252   69.6075  111.0220 C.3      44        0    0.0000
    267 H          58.6288   70.8593  109.2504 H        44        0    0.0000
    268 H          58.3429   69.1544  108.9195 H        44        0    0.0000
    269 H          58.2526   70.5313  111.4818 H        44        0    0.0000
    270 H          57.8295   68.8597  111.1281 H        44        0    0.0000
    271 C          59.8857   69.1203  111.8165 C.3      45        0    0.0000
    272 C          59.6563   69.1293  113.3319 C.3      45        0    0.0000
    273 H          60.1456   68.1085  111.4814 H        45        0    0.0000
    274 H          60.7357   69.7649  111.5609 H        45        0    0.0000
    275 H          58.8868   69.8668  113.5915 H        45        0    0.0000
    276 H          59.2806   68.1526  113.6613 H        45        0    0.0000
    277 C          60.9646   69.4623  114.1287 C.3      46        0    0.0000
    278 C          60.7403   69.4498  115.6449 C.3      46        0    0.0000
    279 H          61.7391   68.7345  113.8570 H        46        0    0.0000
    280 H          61.3315   70.4462  113.8109 H        46        0    0.0000
    281 H          61.7007   69.5371  116.1679 H        46        0    0.0000
    282 H          60.1391   70.3176  115.9433 H        46        0    0.0000
    283 C          60.0186   68.1448  116.1279 C.3      47        0    0.0000
    284 C          59.6458   68.2031  117.6134 C.3      47        0    0.0000
    285 H          59.1183   67.9928  115.5198 H        47        0    0.0000
    286 H          60.6754   67.2867  115.9383 H        47        0    0.0000
    287 H          58.5573   68.2819  117.7252 H        47        0    0.0000
    288 H          59.9474   67.2745  118.1137 H        47        0    0.0000
    289 C          60.3182   69.4140  118.3476 C.3      48        0    0.0000
    290 C          59.9823   69.4460  119.8426 C.3      48        0    0.0000
    291 H          61.4045   69.3536  118.2073 H        48        0    0.0000
    292 H          59.9899   70.3446  117.8683 H        48        0    0.0000
    293 H          60.5737   70.2219  120.3445 H        48        0    0.0000
    294 H          58.9276   69.7120  119.9856 H        48        0    0.0000
    295 C          60.2558   68.0703  120.5426 C.3      49        0    0.0000
    296 C          59.7790   68.0546  121.9991 C.3      49        0    0.0000
    297 H          59.7535   67.2781  119.9737 H        49        0    0.0000
    298 H          61.3311   67.8577  120.4965 H        49        0    0.0000
    299 H          58.9123   67.3903  122.1040 H        49        0    0.0000
    300 H          60.5658   67.6508  122.6482 H        49        0    0.0000
    301 C          59.3855   69.4832  122.5108 C.3      50        0    0.0000
    302 C          58.7514   69.4463  123.9056 C.3      50        0    0.0000
    303 H          60.2828   70.1143  122.5220 H        50        0    0.0000
    304 H          58.6904   69.9367  121.7934 H        50        0    0.0000
    305 H          57.8542   68.8152  123.8943 H        50        0    0.0000
    306 H          59.4466   68.9928  124.6230 H        50        0    0.0000
    307 H          58.4778   70.4397  124.2614 H        50        0    0.0000
    308 H          69.2798   87.8287  121.7450 H         0        0    0.0000
@<TRIPOS>BOND
     1     1     2      1
     2     1     3      1
     3     1     4      1
     4     1   308      H
     5     2     5      1
     6     2     6      1
     7     2     7      1
     8     7     8      1
     9     7     9      1
    10     7    10      1
    11     8    11      1
    12     8    12      1
    13     8    13      1
    14    13    14      1
    15    13    15      1
    16    13    16      1
    17    14    17      1
    18    14    18      1
    19    14    19      1
    20    19    20      1
    21    19    21      1
    22    19    22      1
    23    20    23      1
    24    20    24      1
    25    20    25      1
    26    25    26      1
    27    25    27      1
    28    25    28      1
    29    26    29      1
    30    26    30      1
    31    26    31      1
    32    31    32      1
    33    31    33      1
    34    31    34      1
    35    32    35      1
    36    32    36      1
    37    32    37      1
    38    37    38      1
    39    37    39      1
    40    37    40      1
    41    38    41      1
    42    38    42      1
    43    38    43      1
    44    43    44      1
    45    43    45      1
    46    43    46      1
    47    44    47      1
    48    44    48      1
    49    44    49      1
    50    49    50      1
    51    49    51      1
    52    49    52      1
    53    50    53      1
    54    50    54      1
    55    50    55      1
    56    55    56      1
    57    55    57      1
    58    55    58      1
    59    56    59      1
    60    56    60      1
    61    56    61      1
    62    61    62      1
    63    61    63      1
    64    61    64      1
    65    62    65      1
    66    62    66      1
    67    62    67      1
    68    67    68      1
    69    67    69      1
    70    67    70      1
    71    68    71      1
    72    68    72      1
    73    68    73      1
    74    73    74      1
    75    73    75      1
    76    73    76      1
    77    74    77      1
    78    74    78      1
    79    74    79      1
    80    79    80      1
    81    79    81      1
    82    79    82      1
    83    80    83      1
    84    80    84      1
    85    80    85      1
    86    85    86      1
    87    85    87      1
    88    85    88      1
    89    86    89      1
    90    86    90      1
    91    86    91      1
    92    91    92      1
    93    91    93      1
    94    91    94      1
    95    92    95      1
    96    92    96      1
    97    92    97      1
    98    97    98      1
    99    97    99      1
   100    97   100      1
   101    98   101      1
   102    98   102      1
   103    98   103      1
   104   103   104      1
   105   103   105      1
   106   103   106      1
   107   104   107      1
   108   104   108      1
   109   104   109      1
   110   109   110      1
   111   109   111      1
   112   109   112      1
   113   110   113      1
   114   110   114      1
   115   110   115      1
   116   115   116      1
   117   115   117      1
   118   115   118      1
   119   116   119      1
   120   116   120      1
   121   116   121      1
   122   121   122      1
   123   121   123      1
   124   121   124      1
   125   122   125      1
   126   122   126      1
   127   122   127      1
   128   127   128      1
   129   127   129      1
   130   127   130      1
   131   128   131      1
   132   128   132      1
   133   128   133      1
   134   133   134      1
   135   133   135      1
   136   133   136      1
   137   134   137      1
   138   134   138      1
   139   134   139      1
   140   139   140      1
   141   139   141      1
   142   139   142      1
   143   140   143      1
   144   140   144      1
   145   140   145      1
   146   145   146      1
   147   145   147      1
   148   145   148      1
   149   146   149      1
   150   146   150      1
   151   146   151      1
   152   151   152      1
   153   151   153      1
   154   151   154      1
   155   152   155      1
   156   152   156      1
   157   152   157      1
   158   157   158      1
   159   157   159      1
   160   157   160      1
   161   158   161      1
   162   158   162      1
   163   158   163      1
   164   163   164      1
   165   163   165      1
   166   163   166      1
   167   164   167      1
   168   164   168      1
   169   164   169      1
   170   169   170      1
   171   169   171      1
   172   169   172      1
   173   170   173      1
   174   170   174      1
   175   170   175      1
   176   175   176      1
   177   175   177      1
   178   175   178      1
   179   176   179      1
   180   176   180      1
   181   176   181      1
   182   181   182      1
   183   181   183      1
   184   181   184      1
   185   182   185      1
   186   182   186      1
   187   182   187      1
   188   187   188      1
   189   187   189      1
   190   187   190      1
   191   188   191      1
   192   188   192      1
   193   188   193      1
   194   193   194      1
   195   193   195      1
   196   193   196      1
   197   194   197      1
   198   194   198      1
   199   194   199      1
   200   199   200      1
   201   199   201      1
   202   199   202      1
   203   200   203      1
   204   200   204      1
   205   200   205      1
   206   205   206      1
   207   205   207      1
   208   205   208      1
   209   206   209      1
   210   206   210      1
   211   206   211      1
   212   211   212      1
   213   211   213      1
   214   211   214      1
   215   212   215      1
   216   212   216      1
   217   212   217      1
   218   217   218      1
   219   217   219      1
   220   217   220      1
   221   218   221      1
   222   218   222      1
   223   218   223      1
   224   223   224      1
   225   223   225      1
   226   223   226      1
   227   224   227      1
   228   224   228      1
   229   224   229      1
   230   229   230      1
   231   229   231      1
   232   229   232      1
   233   230   233      1
   234   230   234      1
   235   230   235      1
   236   235   236      1
   237   235   237      1
   238   235   238      1
   239   236   239      1
   240   236   240      1
   241   236   241      1
   242   241   242      1
   243   241   243      1
   244   241   244      1
   245   242   245      1
   246   242   246      1
   247   242   247      1
   248   247   248      1
   249   247   249      1
   250   247   250      1
   251   248   251      1
   252   248   252      1
   253   248   253      1
   254   253   254      1
   255   253   255      1
   256   253   256      1
   257   254   257      1
   258   254   258      1
   259   254   259      1
   260   259   260      1
   261   259   261      1
   262   259   262      1
   263   260   263      1
   264   260   264      1
   265   260   265      1
   266   265   266      1
   267   265   267      1
   268   265   268      1
   269   266   269      1
   270   266   270      1
   271   266   271      1
   272   271   272      1
   273   271   273      1
   274   271   274      1
   275   272   275      1
   276   272   276      1
   277   272   277      1
   278   277   278      1
   279   277   279      1
   280   277   280      1
   281   278   281      1
   282   278   282      1
   283   278   283      1
   284   283   284      1
   285   283   285      1
   286   283   286      1
   287   284   287      1
   288   284   288      1
   289   284   289      1
   290   289   290      1
   291   289   291      1
   292   289   292      1
   293   290   293      1
   294   290   294      1
   295   290   295      1
   296   295   296      1
   297   295   297      1
   298   295   298      1
   299   296   299      1
   300   296   300      1
   301   296   301      1
   302   301   302      1
   303   301   303      1
   304   301   304      1
   305   302   305      1
   306   302   306      1
   307   302   307      H
