###
### Created by PolyChef-cpp17 on Thu Feb 27 19:40:29 2025
###

@<TRIPOS>MOLECULE
NO_INFO
440 439 1 0 0
SMALL
USER_CHARGES


@<TRIPOS>ATOM
      1 C          49.2798   53.1887  120.6551 C.3       0        0    0.0000
      2 C          48.4513   52.0375  120.0742 C.3       0        0    0.0000
      3 H          48.8875   54.1502  120.3015 H         0        0    0.0000
      4 H          50.3162   53.1221  120.3014 H         0        0    0.0000
      5 H          48.4065   51.2076  120.7903 H         0        0    0.0000
      6 H          47.4178   52.3650  119.9066 H         0        0    0.0000
      7 C          49.0387   51.5064  118.7213 C.3       1        0    0.0000
      8 C          49.6331   52.6302  117.8652 C.3       1        0    0.0000
      9 H          49.8065   50.7541  118.9403 H         1        0    0.0000
     10 H          48.2430   50.9925  118.1678 H         1        0    0.0000
     11 H          48.9395   53.4792  117.8247 H         1        0    0.0000
     12 H          50.5590   53.0013  118.3217 H         1        0    0.0000
     13 C          49.9437   52.1614  116.4019 C.3       2        0    0.0000
     14 C          49.8841   53.3168  115.3968 C.3       2        0    0.0000
     15 H          50.9376   51.6971  116.3828 H         2        0    0.0000
     16 H          49.2260   51.3808  116.1208 H         2        0    0.0000
     17 H          48.9639   53.8959  115.5435 H         2        0    0.0000
     18 H          50.7205   54.0063  115.5660 H         2        0    0.0000
     19 C          49.9346   52.8160  113.9121 C.3       3        0    0.0000
     20 C          49.8368   53.9686  112.9067 C.3       3        0    0.0000
     21 H          50.8680   52.2605  113.7579 H         3        0    0.0000
     22 H          49.1147   52.1053  113.7506 H         3        0    0.0000
     23 H          48.9084   54.5305  113.0677 H         3        0    0.0000
     24 H          50.6627   54.6739  113.0614 H         3        0    0.0000
     25 C          49.8724   53.4665  111.4220 C.3       4        0    0.0000
     26 C          49.9190   54.6239  110.4184 C.3       4        0    0.0000
     27 H          50.7470   52.8178  111.2890 H         4        0    0.0000
     28 H          48.9878   52.8443  111.2379 H         4        0    0.0000
     29 H          49.0336   55.2608  110.5372 H         4        0    0.0000
     30 H          50.7921   55.2582  110.6160 H         4        0    0.0000
     31 C          49.9847   54.1216  108.9349 C.3       5        0    0.0000
     32 C          48.9491   54.8129  108.0412 C.3       5        0    0.0000
     33 H          50.9951   54.2986  108.5461 H         5        0    0.0000
     34 H          49.8279   53.0359  108.9220 H         5        0    0.0000
     35 H          47.9872   54.8822  108.5643 H         5        0    0.0000
     36 H          49.2650   55.8410  107.8252 H         5        0    0.0000
     37 C          48.7337   54.0551  106.6859 C.3       6        0    0.0000
     38 C          49.1092   54.9147  105.4738 C.3       6        0    0.0000
     39 H          49.3328   53.1362  106.6954 H         6        0    0.0000
     40 H          47.6834   53.7458  106.6168 H         6        0    0.0000
     41 H          48.2425   55.5023  105.1463 H         6        0    0.0000
     42 H          49.8908   55.6334  105.7499 H         6        0    0.0000
     43 C          49.6192   54.0518  104.2686 C.3       7        0    0.0000
     44 C          49.0437   54.5264  102.9297 C.3       7        0    0.0000
     45 H          50.7152   54.0932  104.2428 H         7        0    0.0000
     46 H          49.3476   53.0035  104.4443 H         7        0    0.0000
     47 H          47.9604   54.6755  103.0176 H         7        0    0.0000
     48 H          49.4745   55.4982  102.6585 H         7        0    0.0000
     49 C          49.3213   53.5092  101.7697 C.3       8        0    0.0000
     50 C          49.1579   54.1475  100.3859 C.3       8        0    0.0000
     51 H          50.3377   53.1122  101.8831 H         8        0    0.0000
     52 H          48.6372   52.6580  101.8745 H         8        0    0.0000
     53 H          48.1191   54.4689  100.2402 H         8        0    0.0000
     54 H          49.7797   55.0482  100.3113 H         8        0    0.0000
     55 C          49.5501   53.1655   99.2286 C.3       9        0    0.0000
     56 C          49.3202   53.7793   97.8431 C.3       9        0    0.0000
     57 H          50.6040   52.8843   99.3453 H         9        0    0.0000
     58 H          48.9646   52.2436   99.3334 H         9        0    0.0000
     59 H          48.2705   54.0788   97.7338 H         9        0    0.0000
     60 H          49.9211   54.6902   97.7309 H         9        0    0.0000
     61 C          49.6857   52.7871   96.6857 C.3      10        0    0.0000
     62 C          49.4640   53.4038   95.3003 C.3      10        0    0.0000
     63 H          50.7336   52.4827   96.7987 H        10        0    0.0000
     64 H          49.0803   51.8787   96.7943 H        10        0    0.0000
     65 H          48.4159   53.7074   95.1870 H        10        0    0.0000
     66 H          50.0687   54.3128   95.1920 H        10        0    0.0000
     67 C          49.8307   52.4121   94.1429 C.3      11        0    0.0000
     68 C          49.6064   53.0279   92.7574 C.3      11        0    0.0000
     69 H          50.8794   52.1102   94.2550 H        11        0    0.0000
     70 H          49.2275   51.5024   94.2524 H        11        0    0.0000
     71 H          48.5573   53.3285   92.6448 H        11        0    0.0000
     72 H          50.2084   53.9385   92.6485 H        11        0    0.0000
     73 C          49.9751   52.0370   91.6001 C.3      12        0    0.0000
     74 C          49.7416   52.6494   90.2146 C.3      12        0    0.0000
     75 H          51.0262   51.7419   91.7086 H        12        0    0.0000
     76 H          49.3782   51.1235   91.7131 H        12        0    0.0000
     77 H          48.6902   52.9430   90.1054 H        12        0    0.0000
     78 H          50.3374   53.5637   90.1022 H        12        0    0.0000
     79 C          50.1125   51.6592   89.0572 C.3      13        0    0.0000
     80 C          49.8815   52.2725   87.6718 C.3      13        0    0.0000
     81 H          51.1634   51.3641   89.1675 H        13        0    0.0000
     82 H          49.5154   50.7456   89.1685 H        13        0    0.0000
     83 H          48.8296   52.5629   87.5596 H        13        0    0.0000
     84 H          50.4747   53.1889   87.5624 H        13        0    0.0000
     85 C          50.2593   51.2850   86.5144 C.3      14        0    0.0000
     86 C          50.0298   51.8988   85.1289 C.3      14        0    0.0000
     87 H          51.3110   50.9937   86.6273 H        14        0    0.0000
     88 H          49.6654   50.3690   86.6231 H        14        0    0.0000
     89 H          48.9734   52.1686   85.0074 H        14        0    0.0000
     90 H          50.6056   52.8272   85.0287 H        14        0    0.0000
     91 C          50.4385   50.9234   83.9718 C.3      15        0    0.0000
     92 C          50.2128   51.5388   82.5864 C.3      15        0    0.0000
     93 H          51.4941   50.6512   84.0951 H        15        0    0.0000
     94 H          49.8605   49.9962   84.0702 H        15        0    0.0000
     95 H          49.1944   51.9404   82.5146 H        15        0    0.0000
     96 H          50.8960   52.3835   82.4342 H        15        0    0.0000
     97 C          50.4288   50.4999   81.4325 C.3      16        0    0.0000
     98 C          50.1904   51.1119   80.0477 C.3      16        0    0.0000
     99 H          51.4503   50.1053   81.4986 H        16        0    0.0000
    100 H          49.7523   49.6507   81.5900 H        16        0    0.0000
    101 H          51.0895   51.0032   79.4285 H        16        0    0.0000
    102 H          49.3856   50.5736   79.5320 H        16        0    0.0000
    103 C          49.8122   52.6312   80.1268 C.3      17        0    0.0000
    104 C          49.3740   53.1921   78.7694 C.3      17        0    0.0000
    105 H          49.0088   52.7577   80.8631 H        17        0    0.0000
    106 H          50.6765   53.1916   80.5041 H        17        0    0.0000
    107 H          50.2316   53.6414   78.2535 H        17        0    0.0000
    108 H          49.0096   52.3808   78.1271 H        17        0    0.0000
    109 C          48.2459   54.2717   78.9088 C.3      18        0    0.0000
    110 C          47.8036   54.8282   77.5511 C.3      18        0    0.0000
    111 H          47.3900   53.8237   79.4287 H        18        0    0.0000
    112 H          48.6119   55.0850   79.5476 H        18        0    0.0000
    113 H          46.9106   55.4537   77.6737 H        18        0    0.0000
    114 H          48.5867   55.4750   77.1364 H        18        0    0.0000
    115 C          47.4868   53.6924   76.5181 C.3      19        0    0.0000
    116 C          47.3513   54.2286   75.0886 C.3      19        0    0.0000
    117 H          48.2843   52.9405   76.5637 H        19        0    0.0000
    118 H          46.5606   53.1880   76.8200 H        19        0    0.0000
    119 H          46.4631   54.8676   75.0092 H        19        0    0.0000
    120 H          48.2150   54.8573   74.8392 H        19        0    0.0000
    121 C          47.2417   53.0774   74.0302 C.3      20        0    0.0000
    122 C          46.8420   53.5979   72.6452 C.3      20        0    0.0000
    123 H          48.2058   52.5571   73.9727 H        20        0    0.0000
    124 H          46.5075   52.3422   74.3821 H        20        0    0.0000
    125 H          45.9434   54.2224   72.7230 H        20        0    0.0000
    126 H          47.6359   54.2374   72.2401 H        20        0    0.0000
    127 C          46.5630   52.4352   71.6314 C.3      21        0    0.0000
    128 C          45.4957   52.8099   70.5972 C.3      21        0    0.0000
    129 H          47.5011   52.1741   71.1261 H        21        0    0.0000
    130 H          46.2485   51.5457   72.1912 H        21        0    0.0000
    131 H          44.6106   53.2178   71.1010 H        21        0    0.0000
    132 H          45.8736   53.5993   69.9357 H        21        0    0.0000
    133 C          45.0594   51.5840   69.7230 C.3      22        0    0.0000
    134 C          44.0610   51.9771   68.6285 C.3      22        0    0.0000
    135 H          45.9533   51.1346   69.2729 H        22        0    0.0000
    136 H          44.6190   50.8217   70.3776 H        22        0    0.0000
    137 H          43.1608   52.4129   69.0794 H        22        0    0.0000
    138 H          44.4958   52.7502   67.9828 H        22        0    0.0000
    139 C          43.6408   50.7552   67.7410 C.3      23        0    0.0000
    140 C          42.9128   51.1881   66.4637 C.3      23        0    0.0000
    141 H          44.5383   50.1785   67.4854 H        23        0    0.0000
    142 H          42.9985   50.0920   68.3336 H        23        0    0.0000
    143 H          41.9502   51.6494   66.7172 H        23        0    0.0000
    144 H          43.4989   51.9515   65.9370 H        23        0    0.0000
    145 C          42.6564   49.9868   65.4897 C.3      24        0    0.0000
    146 C          42.9875   50.3376   64.0349 C.3      24        0    0.0000
    147 H          43.2600   49.1312   65.8171 H        24        0    0.0000
    148 H          41.6060   49.6817   65.5734 H        24        0    0.0000
    149 H          42.0743   50.6286   63.5010 H        24        0    0.0000
    150 H          43.6616   51.2024   64.0006 H        24        0    0.0000
    151 C          43.6590   49.1430   63.2738 C.3      25        0    0.0000
    152 C          42.6326   48.2669   62.5470 C.3      25        0    0.0000
    153 H          44.3858   49.5444   62.5567 H        25        0    0.0000
    154 H          44.2264   48.5395   63.9931 H        25        0    0.0000
    155 H          41.7013   48.8263   62.3947 H        25        0    0.0000
    156 H          43.0054   47.9984   61.5508 H        25        0    0.0000
    157 C          42.3087   46.9520   63.3366 C.3      26        0    0.0000
    158 C          42.5852   45.6932   62.5070 C.3      26        0    0.0000
    159 H          42.9068   46.9353   64.2562 H        26        0    0.0000
    160 H          41.2563   46.9752   63.6456 H        26        0    0.0000
    161 H          41.6568   45.3363   62.0442 H        26        0    0.0000
    162 H          43.2760   45.9271   61.6875 H        26        0    0.0000
    163 C          43.1974   44.5360   63.3693 C.3      27        0    0.0000
    164 C          44.3909   43.8663   62.6792 C.3      27        0    0.0000
    165 H          43.5044   44.9432   64.3406 H        27        0    0.0000
    166 H          42.4151   43.7940   63.5717 H        27        0    0.0000
    167 H          44.0578   42.9758   62.1319 H        27        0    0.0000
    168 H          44.8270   44.5470   61.9376 H        27        0    0.0000
    169 C          45.5065   43.4461   63.6971 C.3      28        0    0.0000
    170 C          46.9041   43.8754   63.2371 C.3      28        0    0.0000
    171 H          45.2792   43.8901   64.6741 H        28        0    0.0000
    172 H          45.4721   42.3576   63.8300 H        28        0    0.0000
    173 H          47.4085   43.0396   62.7364 H        28        0    0.0000
    174 H          46.8255   44.6834   62.4992 H        28        0    0.0000
    175 C          47.7977   44.3642   64.4287 C.3      29        0    0.0000
    176 C          48.4849   45.7010   64.1290 C.3      29        0    0.0000
    177 H          47.1723   44.4555   65.3254 H        29        0    0.0000
    178 H          48.5493   43.5951   64.6457 H        29        0    0.0000
    179 H          49.4512   45.5259   63.6399 H        29        0    0.0000
    180 H          47.8783   46.2869   63.4274 H        29        0    0.0000
    181 C          48.7212   46.5511   65.4248 C.3      30        0    0.0000
    182 C          50.1497   47.1004   65.5066 C.3      30        0    0.0000
    183 H          47.9991   47.3768   65.4425 H        30        0    0.0000
    184 H          48.5075   45.9268   66.3012 H        30        0    0.0000
    185 H          50.8693   46.3198   65.2303 H        30        0    0.0000
    186 H          50.2801   47.9181   64.7869 H        30        0    0.0000
    187 C          50.5022   47.6280   66.9401 C.3      31        0    0.0000
    188 C          51.7470   48.5220   66.9402 C.3      31        0    0.0000
    189 H          49.6413   48.1818   67.3346 H        31        0    0.0000
    190 H          50.6558   46.7691   67.6051 H        31        0    0.0000
    191 H          52.6245   47.9451   66.6229 H        31        0    0.0000
    192 H          51.6258   49.3358   66.2144 H        31        0    0.0000
    193 C          52.0331   49.1420   68.3513 C.3      32        0    0.0000
    194 C          53.1466   50.1943   68.3085 C.3      32        0    0.0000
    195 H          51.1078   49.5889   68.7354 H        32        0    0.0000
    196 H          52.3043   48.3353   69.0435 H        32        0    0.0000
    197 H          54.0862   49.7345   67.9780 H        32        0    0.0000
    198 H          52.9012   50.9720   67.5747 H        32        0    0.0000
    199 C          53.3785   50.8709   69.7034 C.3      33        0    0.0000
    200 C          53.4732   52.3972   69.6001 C.3      33        0    0.0000
    201 H          52.5570   50.5896   70.3739 H        33        0    0.0000
    202 H          54.2978   50.4660   70.1444 H        33        0    0.0000
    203 H          54.5027   52.6952   69.3660 H        33        0    0.0000
    204 H          52.8456   52.7581   68.7759 H        33        0    0.0000
    205 C          53.0291   53.1109   70.9233 C.3      34        0    0.0000
    206 C          54.2215   53.6520   71.7198 C.3      34        0    0.0000
    207 H          52.3431   53.9289   70.6707 H        34        0    0.0000
    208 H          52.4599   52.3998   71.5348 H        34        0    0.0000
    209 H          55.1416   53.1379   71.4154 H        34        0    0.0000
    210 H          54.3683   54.7169   71.5004 H        34        0    0.0000
    211 C          54.0322   53.4761   73.2660 C.3      35        0    0.0000
    212 C          53.4248   54.7209   73.9221 C.3      35        0    0.0000
    213 H          53.3908   52.6047   73.4468 H        35        0    0.0000
    214 H          55.0059   53.2499   73.7179 H        35        0    0.0000
    215 H          53.9363   54.9347   74.8687 H        35        0    0.0000
    216 H          53.5745   55.5965   73.2783 H        35        0    0.0000
    217 C          51.8912   54.5563   74.2024 C.3      36        0    0.0000
    218 C          51.4858   55.1247   75.5668 C.3      36        0    0.0000
    219 H          51.3300   55.0577   73.4042 H        36        0    0.0000
    220 H          51.6340   53.4912   74.1472 H        36        0    0.0000
    221 H          51.7376   56.1912   75.6199 H        36        0    0.0000
    222 H          50.3991   55.0507   75.6973 H        36        0    0.0000
    223 C          52.1891   54.3799   76.7535 C.3      37        0    0.0000
    224 C          52.8103   55.3518   77.7627 C.3      37        0    0.0000
    225 H          51.4536   53.7376   77.2534 H        37        0    0.0000
    226 H          52.9617   53.7161   76.3460 H        37        0    0.0000
    227 H          53.6743   54.8850   78.2517 H        37        0    0.0000
    228 H          53.1851   56.2433   77.2448 H        37        0    0.0000
    229 C          51.7876   55.7994   78.8633 C.3      38        0    0.0000
    230 C          52.0092   57.2497   79.3067 C.3      38        0    0.0000
    231 H          50.7703   55.6771   78.4714 H        38        0    0.0000
    232 H          51.8768   55.1251   79.7240 H        38        0    0.0000
    233 H          51.9174   57.3279   80.3971 H        38        0    0.0000
    234 H          53.0274   57.5694   79.0526 H        38        0    0.0000
    235 C          50.9890   58.2367   78.6417 C.3      39        0    0.0000
    236 C          50.2040   59.0469   79.6792 C.3      39        0    0.0000
    237 H          51.5357   58.9123   77.9721 H        39        0    0.0000
    238 H          50.2984   57.6610   78.0131 H        39        0    0.0000
    239 H          50.7869   59.1391   80.6040 H        39        0    0.0000
    240 H          50.0345   60.0662   79.3107 H        39        0    0.0000
    241 C          48.8190   58.3952   80.0179 C.3      40        0    0.0000
    242 C          47.6560   59.3777   79.8412 C.3      40        0    0.0000
    243 H          48.6731   57.5197   79.3731 H        40        0    0.0000
    244 H          48.8453   58.0252   81.0503 H        40        0    0.0000
    245 H          47.3903   59.8237   80.8076 H        40        0    0.0000
    246 H          47.9578   60.2037   79.1852 H        40        0    0.0000
    247 C          46.3842   58.6900   79.2353 C.3      41        0    0.0000
    248 C          45.9523   59.3310   77.9118 C.3      41        0    0.0000
    249 H          46.5961   57.6241   79.0855 H        41        0    0.0000
    250 H          45.5681   58.7494   79.9660 H        41        0    0.0000
    251 H          44.8610   59.4408   77.8855 H        41        0    0.0000
    252 H          46.3726   60.3409   77.8280 H        41        0    0.0000
    253 C          46.4055   58.4903   76.6687 C.3      42        0    0.0000
    254 C          45.2839   58.3282   75.6368 C.3      42        0    0.0000
    255 H          47.2726   58.9796   76.2080 H        42        0    0.0000
    256 H          46.7454   57.5056   77.0127 H        42        0    0.0000
    257 H          44.5240   59.1061   75.7819 H        42        0    0.0000
    258 H          45.6826   58.4623   74.6236 H        42        0    0.0000
    259 C          44.5929   56.9240   75.7261 C.3      43        0    0.0000
    260 C          43.1700   56.9396   75.1567 C.3      43        0    0.0000
    261 H          45.2065   56.1929   75.1852 H        43        0    0.0000
    262 H          44.5746   56.6049   76.7756 H        43        0    0.0000
    263 H          42.4683   57.3222   75.9082 H        43        0    0.0000
    264 H          43.1155   57.6212   74.2989 H        43        0    0.0000
    265 C          42.6965   55.5161   74.7018 C.3      44        0    0.0000
    266 C          41.6385   54.9279   75.6418 C.3      44        0    0.0000
    267 H          42.2971   55.5853   73.6823 H        44        0    0.0000
    268 H          43.5683   54.8519   74.6542 H        44        0    0.0000
    269 H          41.1623   55.7291   76.2205 H        44        0    0.0000
    270 H          40.8440   54.4454   75.0591 H        44        0    0.0000
    271 C          42.2446   53.8782   76.6359 C.3      45        0    0.0000
    272 C          41.5340   52.5227   76.5538 C.3      45        0    0.0000
    273 H          43.3123   53.7572   76.4147 H        45        0    0.0000
    274 H          42.1773   54.2770   77.6557 H        45        0    0.0000
    275 H          40.7757   52.4471   77.3430 H        45        0    0.0000
    276 H          41.0035   52.4334   75.5977 H        45        0    0.0000
    277 C          42.5301   51.3203   76.6932 C.3      46        0    0.0000
    278 C          41.8834   49.9834   76.3145 C.3      46        0    0.0000
    279 H          43.4037   51.5092   76.0571 H        46        0    0.0000
    280 H          42.8955   51.2819   77.7269 H        46        0    0.0000
    281 H          40.8747   49.9192   76.7410 H        46        0    0.0000
    282 H          41.7698   49.9156   75.2254 H        46        0    0.0000
    283 C          42.7216   48.7558   76.8124 C.3      47        0    0.0000
    284 C          41.9724   47.4306   76.6352 C.3      47        0    0.0000
    285 H          43.6700   48.7284   76.2616 H        47        0    0.0000
    286 H          42.9753   48.9061   77.8691 H        47        0    0.0000
    287 H          40.8953   47.6170   76.5416 H        47        0    0.0000
    288 H          42.2892   46.9407   75.7061 H        47        0    0.0000
    289 C          42.2128   46.4474   77.8323 C.3      48        0    0.0000
    290 C          41.4997   45.1054   77.6340 C.3      48        0    0.0000
    291 H          43.2920   46.2866   77.9465 H        48        0    0.0000
    292 H          41.8658   46.9248   78.7571 H        48        0    0.0000
    293 H          40.4790   45.1593   78.0326 H        48        0    0.0000
    294 H          41.4085   44.8824   76.5637 H        48        0    0.0000
    295 C          42.2538   43.9227   78.3340 C.3      49        0    0.0000
    296 C          41.5227   42.5864   78.1647 C.3      49        0    0.0000
    297 H          43.2663   43.8530   77.9174 H        49        0    0.0000
    298 H          42.3671   44.1571   79.3998 H        49        0    0.0000
    299 H          40.4840   42.6800   78.5052 H        49        0    0.0000
    300 H          41.4827   42.3113   77.1034 H        49        0    0.0000
    301 C          42.2130   41.4263   78.9617 C.3      50        0    0.0000
    302 C          41.4732   40.0932   78.8046 C.3      50        0    0.0000
    303 H          43.2484   41.3252   78.6133 H        50        0    0.0000
    304 H          42.2631   41.7062   80.0212 H        50        0    0.0000
    305 H          40.4190   40.2129   79.0837 H        50        0    0.0000
    306 H          41.4870   39.7768   77.7543 H        50        0    0.0000
    307 C          42.1026   38.9574   79.6828 C.3      51        0    0.0000
    308 C          41.3486   37.6304   79.5437 C.3      51        0    0.0000
    309 H          43.1522   38.8260   79.3918 H        51        0    0.0000
    310 H          42.1045   39.2809   80.7311 H        51        0    0.0000
    311 H          40.3362   37.8112   79.1617 H        51        0    0.0000
    312 H          41.8514   36.9869   78.8112 H        51        0    0.0000
    313 C          41.2447   36.8605   80.9054 C.3      52        0    0.0000
    314 C          40.4497   35.5566   80.7763 C.3      52        0    0.0000
    315 H          42.2575   36.6490   81.2701 H        52        0    0.0000
    316 H          40.7733   37.5167   81.6475 H        52        0    0.0000
    317 H          39.4833   35.7514   80.2949 H        52        0    0.0000
    318 H          40.9867   34.8509   80.1304 H        52        0    0.0000
    319 C          40.1943   34.8765   82.1654 C.3      53        0    0.0000
    320 C          38.8126   34.2179   82.2444 C.3      53        0    0.0000
    321 H          40.9778   34.1293   82.3427 H        53        0    0.0000
    322 H          40.2961   35.6328   82.9535 H        53        0    0.0000
    323 H          38.0561   34.8763   81.7998 H        53        0    0.0000
    324 H          38.8045   33.2893   81.6603 H        53        0    0.0000
    325 C          38.3939   33.8908   83.7193 C.3      54        0    0.0000
    326 C          36.9203   34.2137   83.9899 C.3      54        0    0.0000
    327 H          38.5883   32.8290   83.9148 H        54        0    0.0000
    328 H          39.0354   34.4598   84.4035 H        54        0    0.0000
    329 H          36.5483   34.9269   83.2439 H        54        0    0.0000
    330 H          36.3117   33.3065   83.8892 H        54        0    0.0000
    331 C          36.6969   34.8158   85.4200 C.3      55        0    0.0000
    332 C          36.4424   33.7319   86.4733 C.3      55        0    0.0000
    333 H          37.5779   35.4087   85.6955 H        55        0    0.0000
    334 H          35.8487   35.5106   85.3826 H        55        0    0.0000
    335 H          35.6324   34.0428   87.1448 H        55        0    0.0000
    336 H          36.1110   32.8058   85.9875 H        55        0    0.0000
    337 C          37.7189   33.4245   87.3298 C.3      56        0    0.0000
    338 C          37.4227   33.4227   88.8336 C.3      56        0    0.0000
    339 H          38.1234   32.4514   87.0249 H        56        0    0.0000
    340 H          38.4881   34.1718   87.0988 H        56        0    0.0000
    341 H          36.5285   34.0232   89.0416 H        56        0    0.0000
    342 H          37.2030   32.4027   89.1725 H        56        0    0.0000
    343 C          38.6182   33.9883   89.6752 C.3      57        0    0.0000
    344 C          38.3537   33.9135   91.1831 C.3      57        0    0.0000
    345 H          39.5253   33.4247   89.4240 H        57        0    0.0000
    346 H          38.8004   35.0280   89.3764 H        57        0    0.0000
    347 H          37.4625   34.5001   91.4382 H        57        0    0.0000
    348 H          38.1439   32.8776   91.4772 H        57        0    0.0000
    349 C          39.5651   34.4426   92.0257 C.3      58        0    0.0000
    350 C          39.3101   34.3455   93.5339 C.3      58        0    0.0000
    351 H          40.4602   33.8676   91.7578 H        58        0    0.0000
    352 H          39.7638   35.4841   91.7440 H        58        0    0.0000
    353 H          38.4245   34.9339   93.8042 H        58        0    0.0000
    354 H          39.0953   33.3066   93.8130 H        58        0    0.0000
    355 C          40.5306   34.8531   94.3766 C.3      59        0    0.0000
    356 C          40.2762   34.7544   95.8848 C.3      59        0    0.0000
    357 H          41.4164   34.2656   94.1053 H        59        0    0.0000
    358 H          40.7446   35.8925   94.0985 H        59        0    0.0000
    359 H          39.4674   35.4363   96.1753 H        59        0    0.0000
    360 H          39.9432   33.7419   96.1446 H        59        0    0.0000
    361 C          41.5534   35.0978   96.7264 C.3      60        0    0.0000
    362 C          41.2971   35.0062   98.2347 C.3      60        0    0.0000
    363 H          42.3606   34.4124   96.4397 H        60        0    0.0000
    364 H          41.8896   36.1082   96.4627 H        60        0    0.0000
    365 H          41.9847   34.2826   98.6899 H        60        0    0.0000
    366 H          41.4985   35.9742   98.7100 H        60        0    0.0000
    367 C          39.8248   34.5791   98.5623 C.3      61        0    0.0000
    368 C          39.5631   34.5060  100.0707 C.3      61        0    0.0000
    369 H          39.1368   35.2949   98.0955 H        61        0    0.0000
    370 H          39.6278   33.6046   98.0986 H        61        0    0.0000
    371 H          38.7652   35.2057  100.3484 H        61        0    0.0000
    372 H          39.2117   33.5031  100.3433 H        61        0    0.0000
    373 C          40.8430   34.8390  100.9125 C.3      62        0    0.0000
    374 C          40.5775   34.7808  102.4208 C.3      62        0    0.0000
    375 H          41.6374   34.1320  100.6428 H        62        0    0.0000
    376 H          41.2010   35.8372  100.6317 H        62        0    0.0000
    377 H          41.5237   34.8460  102.9721 H        62        0    0.0000
    378 H          39.9728   35.6424  102.7298 H        62        0    0.0000
    379 C          39.8362   33.4657  102.8433 C.3      63        0    0.0000
    380 C          39.5279   33.4292  104.3442 C.3      63        0    0.0000
    381 H          38.9068   33.3827  102.2663 H        63        0    0.0000
    382 H          40.4572   32.6050  102.5658 H        63        0    0.0000
    383 H          38.4434   33.3894  104.5046 H        63        0    0.0000
    384 H          39.9463   32.5194  104.7921 H        63        0    0.0000
    385 C          40.1050   34.6757  105.0997 C.3      64        0    0.0000
    386 C          39.9498   34.5567  106.6198 C.3      64        0    0.0000
    387 H          41.1642   34.7890  104.8374 H        64        0    0.0000
    388 H          39.5930   35.5763  104.7386 H        64        0    0.0000
    389 H          38.9212   34.8003  106.9131 H        64        0    0.0000
    390 H          40.1312   33.5222  106.9366 H        64        0    0.0000
    391 C          40.9330   35.5016  107.3931 C.3      65        0    0.0000
    392 C          40.7814   35.3788  108.9133 C.3      65        0    0.0000
    393 H          41.9614   35.2606  107.0969 H        65        0    0.0000
    394 H          40.7491   36.5366  107.0791 H        65        0    0.0000
    395 H          41.5880   35.9258  109.4171 H        65        0    0.0000
    396 H          39.8393   35.8392  109.2358 H        65        0    0.0000
    397 C          40.8055   33.8870  109.3942 C.3      66        0    0.0000
    398 C          40.3695   33.7409  110.8562 C.3      66        0    0.0000
    399 H          40.1483   33.2955  108.7447 H        66        0    0.0000
    400 H          41.8195   33.4893  109.2624 H        66        0    0.0000
    401 H          39.3466   33.3476  110.9062 H        66        0    0.0000
    402 H          41.0117   33.0144  111.3694 H        66        0    0.0000
    403 C          40.4261   35.1019  111.6319 C.3      67        0    0.0000
    404 C          40.0982   34.9365  113.1199 C.3      67        0    0.0000
    405 H          41.4269   35.5353  111.5132 H        67        0    0.0000
    406 H          39.7220   35.8033  111.1673 H        67        0    0.0000
    407 H          39.7304   35.8846  113.5317 H        67        0    0.0000
    408 H          39.2921   34.2035  113.2482 H        67        0    0.0000
    409 C          41.3413   34.4717  113.9542 C.3      68        0    0.0000
    410 C          41.0326   34.3762  115.4524 C.3      68        0    0.0000
    411 H          41.6767   33.4979  113.5763 H        68        0    0.0000
    412 H          42.1649   35.1763  113.7840 H        68        0    0.0000
    413 H          40.3472   33.5411  115.6427 H        68        0    0.0000
    414 H          41.9514   34.1636  116.0129 H        68        0    0.0000
    415 C          40.3924   35.6931  116.0122 C.3      69        0    0.0000
    416 C          39.8951   35.5303  117.4528 C.3      69        0    0.0000
    417 H          41.1360   36.4979  115.9596 H        69        0    0.0000
    418 H          39.5621   35.9881  115.3587 H        69        0    0.0000
    419 H          40.2030   36.3929  118.0567 H        69        0    0.0000
    420 H          38.7985   35.5077  117.4719 H        69        0    0.0000
    421 C          40.4392   34.2228  118.1250 C.3      70        0    0.0000
    422 C          40.1098   34.1581  119.6204 C.3      70        0    0.0000
    423 H          40.0116   33.3550  117.6077 H        70        0    0.0000
    424 H          41.5251   34.1744  117.9765 H        70        0    0.0000
    425 H          39.0249   34.0820  119.7637 H        70        0    0.0000
    426 H          40.5502   33.2565  120.0640 H        70        0    0.0000
    427 C          40.6355   35.4129  120.3993 C.3      71        0    0.0000
    428 C          40.1935   35.4128  121.8669 C.3      71        0    0.0000
    429 H          41.7305   35.4351  120.3363 H        71        0    0.0000
    430 H          40.2726   36.3183  119.8973 H        71        0    0.0000
    431 H          41.0550   35.6020  122.5192 H        71        0    0.0000
    432 H          39.4790   36.2261  122.0446 H        71        0    0.0000
    433 C          39.5297   34.0562  122.2873 C.3      72        0    0.0000
    434 C          38.9253   34.1168  123.6944 C.3      72        0    0.0000
    435 H          38.7537   33.8004  121.5552 H        72        0    0.0000
    436 H          40.2850   33.2622  122.2362 H        72        0    0.0000
    437 H          39.7013   34.3726  124.4265 H        72        0    0.0000
    438 H          38.1700   34.9109  123.7455 H        72        0    0.0000
    439 H          38.4638   33.1736  123.9867 H        72        0    0.0000
    440 H          49.2798   53.1887  121.7450 H         0        0    0.0000
@<TRIPOS>BOND
     1     1     2      1
     2     1     3      1
     3     1     4      1
     4     1   440      H
     5     2     5      1
     6     2     6      1
     7     2     7      1
     8     7     8      1
     9     7     9      1
    10     7    10      1
    11     8    11      1
    12     8    12      1
    13     8    13      1
    14    13    14      1
    15    13    15      1
    16    13    16      1
    17    14    17      1
    18    14    18      1
    19    14    19      1
    20    19    20      1
    21    19    21      1
    22    19    22      1
    23    20    23      1
    24    20    24      1
    25    20    25      1
    26    25    26      1
    27    25    27      1
    28    25    28      1
    29    26    29      1
    30    26    30      1
    31    26    31      1
    32    31    32      1
    33    31    33      1
    34    31    34      1
    35    32    35      1
    36    32    36      1
    37    32    37      1
    38    37    38      1
    39    37    39      1
    40    37    40      1
    41    38    41      1
    42    38    42      1
    43    38    43      1
    44    43    44      1
    45    43    45      1
    46    43    46      1
    47    44    47      1
    48    44    48      1
    49    44    49      1
    50    49    50      1
    51    49    51      1
    52    49    52      1
    53    50    53      1
    54    50    54      1
    55    50    55      1
    56    55    56      1
    57    55    57      1
    58    55    58      1
    59    56    59      1
    60    56    60      1
    61    56    61      1
    62    61    62      1
    63    61    63      1
    64    61    64      1
    65    62    65      1
    66    62    66      1
    67    62    67      1
    68    67    68      1
    69    67    69      1
    70    67    70      1
    71    68    71      1
    72    68    72      1
    73    68    73      1
    74    73    74      1
    75    73    75      1
    76    73    76      1
    77    74    77      1
    78    74    78      1
    79    74    79      1
    80    79    80      1
    81    79    81      1
    82    79    82      1
    83    80    83      1
    84    80    84      1
    85    80    85      1
    86    85    86      1
    87    85    87      1
    88    85    88      1
    89    86    89      1
    90    86    90      1
    91    86    91      1
    92    91    92      1
    93    91    93      1
    94    91    94      1
    95    92    95      1
    96    92    96      1
    97    92    97      1
    98    97    98      1
    99    97    99      1
   100    97   100      1
   101    98   101      1
   102    98   102      1
   103    98   103      1
   104   103   104      1
   105   103   105      1
   106   103   106      1
   107   104   107      1
   108   104   108      1
   109   104   109      1
   110   109   110      1
   111   109   111      1
   112   109   112      1
   113   110   113      1
   114   110   114      1
   115   110   115      1
   116   115   116      1
   117   115   117      1
   118   115   118      1
   119   116   119      1
   120   116   120      1
   121   116   121      1
   122   121   122      1
   123   121   123      1
   124   121   124      1
   125   122   125      1
   126   122   126      1
   127   122   127      1
   128   127   128      1
   129   127   129      1
   130   127   130      1
   131   128   131      1
   132   128   132      1
   133   128   133      1
   134   133   134      1
   135   133   135      1
   136   133   136      1
   137   134   137      1
   138   134   138      1
   139   134   139      1
   140   139   140      1
   141   139   141      1
   142   139   142      1
   143   140   143      1
   144   140   144      1
   145   140   145      1
   146   145   146      1
   147   145   147      1
   148   145   148      1
   149   146   149      1
   150   146   150      1
   151   146   151      1
   152   151   152      1
   153   151   153      1
   154   151   154      1
   155   152   155      1
   156   152   156      1
   157   152   157      1
   158   157   158      1
   159   157   159      1
   160   157   160      1
   161   158   161      1
   162   158   162      1
   163   158   163      1
   164   163   164      1
   165   163   165      1
   166   163   166      1
   167   164   167      1
   168   164   168      1
   169   164   169      1
   170   169   170      1
   171   169   171      1
   172   169   172      1
   173   170   173      1
   174   170   174      1
   175   170   175      1
   176   175   176      1
   177   175   177      1
   178   175   178      1
   179   176   179      1
   180   176   180      1
   181   176   181      1
   182   181   182      1
   183   181   183      1
   184   181   184      1
   185   182   185      1
   186   182   186      1
   187   182   187      1
   188   187   188      1
   189   187   189      1
   190   187   190      1
   191   188   191      1
   192   188   192      1
   193   188   193      1
   194   193   194      1
   195   193   195      1
   196   193   196      1
   197   194   197      1
   198   194   198      1
   199   194   199      1
   200   199   200      1
   201   199   201      1
   202   199   202      1
   203   200   203      1
   204   200   204      1
   205   200   205      1
   206   205   206      1
   207   205   207      1
   208   205   208      1
   209   206   209      1
   210   206   210      1
   211   206   211      1
   212   211   212      1
   213   211   213      1
   214   211   214      1
   215   212   215      1
   216   212   216      1
   217   212   217      1
   218   217   218      1
   219   217   219      1
   220   217   220      1
   221   218   221      1
   222   218   222      1
   223   218   223      1
   224   223   224      1
   225   223   225      1
   226   223   226      1
   227   224   227      1
   228   224   228      1
   229   224   229      1
   230   229   230      1
   231   229   231      1
   232   229   232      1
   233   230   233      1
   234   230   234      1
   235   230   235      1
   236   235   236      1
   237   235   237      1
   238   235   238      1
   239   236   239      1
   240   236   240      1
   241   236   241      1
   242   241   242      1
   243   241   243      1
   244   241   244      1
   245   242   245      1
   246   242   246      1
   247   242   247      1
   248   247   248      1
   249   247   249      1
   250   247   250      1
   251   248   251      1
   252   248   252      1
   253   248   253      1
   254   253   254      1
   255   253   255      1
   256   253   256      1
   257   254   257      1
   258   254   258      1
   259   254   259      1
   260   259   260      1
   261   259   261      1
   262   259   262      1
   263   260   263      1
   264   260   264      1
   265   260   265      1
   266   265   266      1
   267   265   267      1
   268   265   268      1
   269   266   269      1
   270   266   270      1
   271   266   271      1
   272   271   272      1
   273   271   273      1
   274   271   274      1
   275   272   275      1
   276   272   276      1
   277   272   277      1
   278   277   278      1
   279   277   279      1
   280   277   280      1
   281   278   281      1
   282   278   282      1
   283   278   283      1
   284   283   284      1
   285   283   285      1
   286   283   286      1
   287   284   287      1
   288   284   288      1
   289   284   289      1
   290   289   290      1
   291   289   291      1
   292   289   292      1
   293   290   293      1
   294   290   294      1
   295   290   295      1
   296   295   296      1
   297   295   297      1
   298   295   298      1
   299   296   299      1
   300   296   300      1
   301   296   301      1
   302   301   302      1
   303   301   303      1
   304   301   304      1
   305   302   305      1
   306   302   306      1
   307   302   307      1
   308   307   308      1
   309   307   309      1
   310   307   310      1
   311   308   311      1
   312   308   312      1
   313   308   313      1
   314   313   314      1
   315   313   315      1
   316   313   316      1
   317   314   317      1
   318   314   318      1
   319   314   319      1
   320   319   320      1
   321   319   321      1
   322   319   322      1
   323   320   323      1
   324   320   324      1
   325   320   325      1
   326   325   326      1
   327   325   327      1
   328   325   328      1
   329   326   329      1
   330   326   330      1
   331   326   331      1
   332   331   332      1
   333   331   333      1
   334   331   334      1
   335   332   335      1
   336   332   336      1
   337   332   337      1
   338   337   338      1
   339   337   339      1
   340   337   340      1
   341   338   341      1
   342   338   342      1
   343   338   343      1
   344   343   344      1
   345   343   345      1
   346   343   346      1
   347   344   347      1
   348   344   348      1
   349   344   349      1
   350   349   350      1
   351   349   351      1
   352   349   352      1
   353   350   353      1
   354   350   354      1
   355   350   355      1
   356   355   356      1
   357   355   357      1
   358   355   358      1
   359   356   359      1
   360   356   360      1
   361   356   361      1
   362   361   362      1
   363   361   363      1
   364   361   364      1
   365   362   365      1
   366   362   366      1
   367   362   367      1
   368   367   368      1
   369   367   369      1
   370   367   370      1
   371   368   371      1
   372   368   372      1
   373   368   373      1
   374   373   374      1
   375   373   375      1
   376   373   376      1
   377   374   377      1
   378   374   378      1
   379   374   379      1
   380   379   380      1
   381   379   381      1
   382   379   382      1
   383   380   383      1
   384   380   384      1
   385   380   385      1
   386   385   386      1
   387   385   387      1
   388   385   388      1
   389   386   389      1
   390   386   390      1
   391   386   391      1
   392   391   392      1
   393   391   393      1
   394   391   394      1
   395   392   395      1
   396   392   396      1
   397   392   397      1
   398   397   398      1
   399   397   399      1
   400   397   400      1
   401   398   401      1
   402   398   402      1
   403   398   403      1
   404   403   404      1
   405   403   405      1
   406   403   406      1
   407   404   407      1
   408   404   408      1
   409   404   409      1
   410   409   410      1
   411   409   411      1
   412   409   412      1
   413   410   413      1
   414   410   414      1
   415   410   415      1
   416   415   416      1
   417   415   417      1
   418   415   418      1
   419   416   419      1
   420   416   420      1
   421   416   421      1
   422   421   422      1
   423   421   423      1
   424   421   424      1
   425   422   425      1
   426   422   426      1
   427   422   427      1
   428   427   428      1
   429   427   429      1
   430   427   430      1
   431   428   431      1
   432   428   432      1
   433   428   433      1
   434   433   434      1
   435   433   435      1
   436   433   436      1
   437   434   437      1
   438   434   438      1
   439   434   439      H
