###
### Created by PolyChef-cpp17 on Thu Feb 27 19:40:28 2025
###

@<TRIPOS>MOLECULE
NO_INFO
296 295 1 0 0
SMALL
USER_CHARGES


@<TRIPOS>ATOM
      1 C         179.2798  105.1487  120.6551 C.3       0        0    0.0000
      2 C         178.4513  103.9975  120.0742 C.3       0        0    0.0000
      3 H         178.8875  106.1102  120.3015 H         0        0    0.0000
      4 H         180.3161  105.0821  120.3014 H         0        0    0.0000
      5 H         178.4067  103.1675  120.7902 H         0        0    0.0000
      6 H         177.4177  104.3250  119.9068 H         0        0    0.0000
      7 C         179.0385  103.4666  118.7211 C.3       1        0    0.0000
      8 C         179.6341  104.5903  117.8658 C.3       1        0    0.0000
      9 H         179.8056  102.7135  118.9399 H         1        0    0.0000
     10 H         178.2425  102.9538  118.1672 H         1        0    0.0000
     11 H         178.9419  105.4405  117.8267 H         1        0    0.0000
     12 H         180.5610  104.9594  118.3221 H         1        0    0.0000
     13 C         179.9431  104.1225  116.4018 C.3       2        0    0.0000
     14 C         179.8864  105.2794  115.3982 C.3       2        0    0.0000
     15 H         180.9356  103.6555  116.3819 H         2        0    0.0000
     16 H         179.2230  103.3443  116.1199 H         2        0    0.0000
     17 H         178.9672  105.8601  115.5450 H         2        0    0.0000
     18 H         180.7240  105.9670  115.5690 H         2        0    0.0000
     19 C         179.9371  104.7805  113.9129 C.3       3        0    0.0000
     20 C         179.8347  105.9340  112.9089 C.3       3        0    0.0000
     21 H         180.8721  104.2281  113.7572 H         3        0    0.0000
     22 H         179.1193  104.0674  113.7513 H         3        0    0.0000
     23 H         178.9048  106.4930  113.0717 H         3        0    0.0000
     24 H         180.6587  106.6415  113.0633 H         3        0    0.0000
     25 C         179.8699  105.4337  111.4236 C.3       4        0    0.0000
     26 C         179.9212  106.5922  110.4215 C.3       4        0    0.0000
     27 H         180.7426  104.7822  111.2906 H         4        0    0.0000
     28 H         178.9835  104.8146  111.2379 H         4        0    0.0000
     29 H         179.0385  107.2324  110.5412 H         4        0    0.0000
     30 H         180.7969  107.2226  110.6199 H         4        0    0.0000
     31 C         179.9848  106.0915  108.9374 C.3       5        0    0.0000
     32 C         178.9526  106.7889  108.0444 C.3       5        0    0.0000
     33 H         180.9961  106.2643  108.5489 H         5        0    0.0000
     34 H         179.8228  105.0066  108.9229 H         5        0    0.0000
     35 H         177.9914  106.8631  108.5678 H         5        0    0.0000
     36 H         179.2741  107.8154  107.8289 H         5        0    0.0000
     37 C         178.7327  106.0332  106.6887 C.3       6        0    0.0000
     38 C         179.1140  106.8909  105.4771 C.3       6        0    0.0000
     39 H         179.3259  105.1104  106.6980 H         6        0    0.0000
     40 H         177.6805  105.7306  106.6192 H         6        0    0.0000
     41 H         178.2520  107.4861  105.1513 H         6        0    0.0000
     42 H         179.9021  107.6025  105.7530 H         6        0    0.0000
     43 C         179.6151  106.0249  104.2702 C.3       7        0    0.0000
     44 C         179.0604  106.5202  102.9301 C.3       7        0    0.0000
     45 H         180.7119  106.0432  104.2532 H         7        0    0.0000
     46 H         179.3199  104.9816  104.4370 H         7        0    0.0000
     47 H         177.9791  106.6879  103.0094 H         7        0    0.0000
     48 H         179.5108  107.4863  102.6704 H         7        0    0.0000
     49 C         179.3305  105.5073  101.7645 C.3       8        0    0.0000
     50 C         179.1768  106.1556  100.3842 C.3       8        0    0.0000
     51 H         180.3426  105.0994  101.8779 H         8        0    0.0000
     52 H         178.6376  104.6624  101.8625 H         8        0    0.0000
     53 H         178.1427  106.4926  100.2400 H         8        0    0.0000
     54 H         179.8114  107.0478  100.3149 H         8        0    0.0000
     55 C         179.5554  105.1746   99.2216 C.3       9        0    0.0000
     56 C         179.3232  105.7950   97.8394 C.3       9        0    0.0000
     57 H         180.6077  104.8850   99.3319 H         9        0    0.0000
     58 H         178.9633  104.2570   99.3263 H         9        0    0.0000
     59 H         178.2746  106.1003   97.7355 H         9        0    0.0000
     60 H         179.9283  106.7033   97.7283 H         9        0    0.0000
     61 C         179.6789  104.8054   96.6767 C.3      10        0    0.0000
     62 C         179.4543  105.4285   95.2946 C.3      10        0    0.0000
     63 H         180.7258  104.4955   96.7841 H        10        0    0.0000
     64 H         179.0695  103.8996   96.7845 H        10        0    0.0000
     65 H         178.4065  105.7348   95.1858 H        10        0    0.0000
     66 H         180.0606  106.3366   95.1883 H        10        0    0.0000
     67 C         179.8154  104.4410   94.1319 C.3      11        0    0.0000
     68 C         179.5824  105.0610   92.7498 C.3      11        0    0.0000
     69 H         180.8651  104.1398   94.2370 H        11        0    0.0000
     70 H         179.2138  103.5302   94.2419 H        11        0    0.0000
     71 H         178.5325  105.3611   92.6443 H        11        0    0.0000
     72 H         180.1832  105.9724   92.6402 H        11        0    0.0000
     73 C         179.9451  104.0740   91.5871 C.3      12        0    0.0000
     74 C         179.7126  104.6942   90.2049 C.3      12        0    0.0000
     75 H         180.9949  103.7735   91.6928 H        12        0    0.0000
     76 H         179.3441  103.1627   91.6964 H        12        0    0.0000
     77 H         178.6623  104.9930   90.0986 H        12        0    0.0000
     78 H         180.3122  105.6064   90.0962 H        12        0    0.0000
     79 C         180.0775  103.7081   89.0422 C.3      13        0    0.0000
     80 C         179.8479  104.3293   87.6601 C.3      13        0    0.0000
     81 H         181.1271  103.4075   89.1499 H        13        0    0.0000
     82 H         179.4763  102.7968   89.1496 H        13        0    0.0000
     83 H         178.7992  104.6335   87.5539 H        13        0    0.0000
     84 H         180.4521  105.2385   87.5513 H        13        0    0.0000
     85 C         180.2077  103.3413   86.4974 C.3      14        0    0.0000
     86 C         179.9795  103.9631   85.1153 C.3      14        0    0.0000
     87 H         181.2561  103.0364   86.6042 H        14        0    0.0000
     88 H         179.6028  102.4326   86.6057 H        14        0    0.0000
     89 H         178.9370  104.2904   85.0175 H        14        0    0.0000
     90 H         180.6030  104.8581   84.9978 H        14        0    0.0000
     91 C         180.3064  102.9634   83.9528 C.3      15        0    0.0000
     92 C         180.0748  103.5841   82.5707 C.3      15        0    0.0000
     93 H         181.3497  102.6381   84.0490 H        15        0    0.0000
     94 H         179.6848  102.0674   84.0717 H        15        0    0.0000
     95 H         179.0086  103.8007   82.4294 H        15        0    0.0000
     96 H         180.6036  104.5423   82.4952 H        15        0    0.0000
     97 C         180.5582  102.6475   81.4103 C.3      16        0    0.0000
     98 C         180.3087  103.2597   80.0275 C.3      16        0    0.0000
     99 H         181.6277  102.4425   81.5436 H        16        0    0.0000
    100 H         180.0400  101.6842   81.4942 H        16        0    0.0000
    101 H         179.2378  103.4535   79.8896 H        16        0    0.0000
    102 H         180.8170  104.2286   79.9479 H        16        0    0.0000
    103 C         180.8075  102.3305   78.8677 C.3      17        0    0.0000
    104 C         180.5534  102.9404   77.4847 C.3      17        0    0.0000
    105 H         181.8793  102.1398   79.0035 H        17        0    0.0000
    106 H         180.3020  101.3603   78.9496 H        17        0    0.0000
    107 H         179.4816  103.1306   77.3487 H        17        0    0.0000
    108 H         181.0584  103.9109   77.4031 H        17        0    0.0000
    109 C         181.0530  102.0116   76.3249 C.3      18        0    0.0000
    110 C         180.7984  102.6213   74.9419 C.3      18        0    0.0000
    111 H         182.1250  101.8218   76.4607 H        18        0    0.0000
    112 H         180.5484  101.0410   76.4068 H        18        0    0.0000
    113 H         179.7259  102.8070   74.8044 H        18        0    0.0000
    114 H         181.2994  103.5939   74.8615 H        18        0    0.0000
    115 C         181.3035  101.6953   73.7823 C.3      19        0    0.0000
    116 C         181.1013  102.3301   72.4020 C.3      19        0    0.0000
    117 H         182.3661  101.4751   73.9430 H        19        0    0.0000
    118 H         180.7715  100.7374   73.8374 H        19        0    0.0000
    119 H         180.0365  102.5343   72.2343 H        19        0    0.0000
    120 H         181.6189  103.2962   72.3529 H        19        0    0.0000
    121 C         181.6288  101.4147   71.2440 C.3      20        0    0.0000
    122 C         182.5064  102.1833   70.2499 C.3      20        0    0.0000
    123 H         182.1953  100.5829   71.6809 H        20        0    0.0000
    124 H         180.7702  100.9723   70.7239 H        20        0    0.0000
    125 H         181.8891  102.5900   69.4394 H        20        0    0.0000
    126 H         182.9769  103.0402   70.7479 H        20        0    0.0000
    127 C         183.6281  101.2822   69.6274 C.3      21        0    0.0000
    128 C         183.1784  100.6120   68.3245 C.3      21        0    0.0000
    129 H         184.5170  101.8990   69.4458 H        21        0    0.0000
    130 H         183.9179  100.5205   70.3618 H        21        0    0.0000
    131 H         182.3267  101.1552   67.8965 H        21        0    0.0000
    132 H         183.9846  100.6546   67.5818 H        21        0    0.0000
    133 C         182.7667   99.1145   68.5381 C.3      22        0    0.0000
    134 C         183.5648   98.1595   67.6436 C.3      22        0    0.0000
    135 H         182.9153   98.8540   69.5934 H        22        0    0.0000
    136 H         181.6934   99.0106   68.3360 H        22        0    0.0000
    137 H         182.9885   97.9191   66.7416 H        22        0    0.0000
    138 H         184.4895   98.6441   67.3068 H        22        0    0.0000
    139 C         183.9326   96.8248   68.3789 C.3      23        0    0.0000
    140 C         185.3595   96.3623   68.0640 C.3      23        0    0.0000
    141 H         183.8149   96.9724   69.4596 H        23        0    0.0000
    142 H         183.2130   96.0501   68.0866 H        23        0    0.0000
    143 H         185.4109   95.9715   67.0402 H        23        0    0.0000
    144 H         186.0499   97.2136   68.1113 H        23        0    0.0000
    145 C         185.8566   95.2530   69.0539 C.3      24        0    0.0000
    146 C         186.7306   94.2034   68.3586 C.3      24        0    0.0000
    147 H         186.4172   95.7303   69.8672 H        24        0    0.0000
    148 H         184.9841   94.7718   69.5128 H        24        0    0.0000
    149 H         186.2487   93.8663   67.4325 H        24        0    0.0000
    150 H         187.6922   94.6458   68.0704 H        24        0    0.0000
    151 C         187.0007   92.9570   69.2702 C.3      25        0    0.0000
    152 C         188.3923   92.3581   69.0378 C.3      25        0    0.0000
    153 H         186.8904   93.2561   70.3199 H        25        0    0.0000
    154 H         186.2290   92.2022   69.0749 H        25        0    0.0000
    155 H         188.4398   91.8905   68.0465 H        25        0    0.0000
    156 H         189.1499   93.1515   69.0485 H        25        0    0.0000
    157 C         188.7666   91.2875   70.1200 C.3      26        0    0.0000
    158 C         190.2099   91.4394   70.6126 C.3      26        0    0.0000
    159 H         188.0700   91.3780   70.9627 H        26        0    0.0000
    160 H         188.6177   90.2874   69.6943 H        26        0    0.0000
    161 H         190.9048   91.0132   69.8784 H        26        0    0.0000
    162 H         190.4650   92.5022   70.7077 H        26        0    0.0000
    163 C         190.4428   90.7382   71.9951 C.3      27        0    0.0000
    164 C         191.3953   89.5423   71.8867 C.3      27        0    0.0000
    165 H         190.8432   91.4751   72.7024 H        27        0    0.0000
    166 H         189.4741   90.4126   72.3941 H        27        0    0.0000
    167 H         191.4170   89.1710   70.8547 H        27        0    0.0000
    168 H         192.4186   89.8531   72.1313 H        27        0    0.0000
    169 C         190.9833   88.3665   72.8382 C.3      28        0    0.0000
    170 C         191.7973   88.3576   74.1367 C.3      28        0    0.0000
    171 H         189.9136   88.4537   73.0653 H        28        0    0.0000
    172 H         191.1157   87.4171   72.3047 H        28        0    0.0000
    173 H         192.6335   87.6525   74.0517 H        28        0    0.0000
    174 H         192.2366   89.3475   74.3121 H        28        0    0.0000
    175 C         190.9280   87.9631   75.3802 C.3      29        0    0.0000
    176 C         191.7318   87.9957   76.6847 C.3      29        0    0.0000
    177 H         190.0745   88.6491   75.4469 H        29        0    0.0000
    178 H         190.5141   86.9601   75.2183 H        29        0    0.0000
    179 H         192.6290   87.3717   76.5895 H        29        0    0.0000
    180 H         192.0783   89.0167   76.8876 H        29        0    0.0000
    181 C         190.8946   87.4932   77.9111 C.3      30        0    0.0000
    182 C         191.7402   87.3793   79.1843 C.3      30        0    0.0000
    183 H         190.0584   88.1841   78.0754 H        30        0    0.0000
    184 H         190.4545   86.5192   77.6635 H        30        0    0.0000
    185 H         192.5802   86.6935   79.0179 H        30        0    0.0000
    186 H         192.1750   88.3547   79.4355 H        30        0    0.0000
    187 C         190.9052   86.8679   80.4084 C.3      31        0    0.0000
    188 C         191.6486   87.0513   81.7361 C.3      31        0    0.0000
    189 H         189.9499   87.4068   80.4347 H        31        0    0.0000
    190 H         190.6651   85.8085   80.2549 H        31        0    0.0000
    191 H         192.5424   86.4155   81.7576 H        31        0    0.0000
    192 H         191.9966   88.0872   81.8324 H        31        0    0.0000
    193 C         190.7507   86.7029   82.9729 C.3      32        0    0.0000
    194 C         191.4133   87.0908   84.2994 C.3      32        0    0.0000
    195 H         189.7885   87.2192   82.8679 H        32        0    0.0000
    196 H         190.5341   85.6275   82.9609 H        32        0    0.0000
    197 H         192.3617   86.5522   84.4178 H        32        0    0.0000
    198 H         191.6563   88.1606   84.2998 H        32        0    0.0000
    199 C         190.4983   86.7800   85.5338 C.3      33        0    0.0000
    200 C         191.2007   87.0693   86.8649 C.3      33        0    0.0000
    201 H         189.5820   87.3780   85.4542 H        33        0    0.0000
    202 H         190.1922   85.7274   85.4909 H        33        0    0.0000
    203 H         192.1340   86.4965   86.9300 H        33        0    0.0000
    204 H         191.4771   88.1295   86.9217 H        33        0    0.0000
    205 C         190.3027   86.7144   88.0999 C.3      34        0    0.0000
    206 C         191.0065   87.0004   89.4311 C.3      34        0    0.0000
    207 H         189.3705   87.2891   88.0361 H        34        0    0.0000
    208 H         190.0242   85.6549   88.0417 H        34        0    0.0000
    209 H         191.9405   86.4283   89.4933 H        34        0    0.0000
    210 H         191.2818   88.0606   89.4908 H        34        0    0.0000
    211 C         190.1104   86.6407   90.6661 C.3      35        0    0.0000
    212 C         190.8145   86.9259   91.9972 C.3      35        0    0.0000
    213 H         189.1767   87.2133   90.6042 H        35        0    0.0000
    214 H         189.8345   85.5807   90.6060 H        35        0    0.0000
    215 H         191.7474   86.3519   92.0599 H        35        0    0.0000
    216 H         191.0921   87.9856   92.0565 H        35        0    0.0000
    217 C         189.9175   86.5686   93.2322 C.3      36        0    0.0000
    218 C         190.6228   86.8507   94.5634 C.3      36        0    0.0000
    219 H         188.9857   87.1444   93.1708 H        36        0    0.0000
    220 H         189.6380   85.5095   93.1717 H        36        0    0.0000
    221 H         191.5569   86.2783   94.6229 H        36        0    0.0000
    222 H         190.8985   87.9107   94.6258 H        36        0    0.0000
    223 C         189.7282   86.4876   95.7984 C.3      37        0    0.0000
    224 C         190.4309   86.7761   97.1296 C.3      37        0    0.0000
    225 H         188.7921   87.0563   95.7363 H        37        0    0.0000
    226 H         189.4566   85.4264   95.7386 H        37        0    0.0000
    227 H         191.3663   86.2062   97.1923 H        37        0    0.0000
    228 H         190.7038   87.8370   97.1888 H        37        0    0.0000
    229 C         189.5355   86.4150   98.3646 C.3      38        0    0.0000
    230 C         190.2403   86.6981   99.6957 C.3      38        0    0.0000
    231 H         188.6019   86.9879   98.3040 H        38        0    0.0000
    232 H         189.2591   85.3551   98.3032 H        38        0    0.0000
    233 H         191.1752   86.1270   99.7553 H        38        0    0.0000
    234 H         190.5145   87.7585   99.7581 H        38        0    0.0000
    235 C         189.3462   86.3338  100.9307 C.3      39        0    0.0000
    236 C         190.0498   86.6201  102.2619 C.3      39        0    0.0000
    237 H         188.4103   86.9030  100.8698 H        39        0    0.0000
    238 H         189.0741   85.2728  100.8696 H        39        0    0.0000
    239 H         190.9871   86.0533  102.3215 H        39        0    0.0000
    240 H         190.3191   87.6818  102.3242 H        39        0    0.0000
    241 C         189.1572   86.2519  103.4969 C.3      40        0    0.0000
    242 C         189.8598   86.5406  104.8281 C.3      40        0    0.0000
    243 H         188.2190   86.8173  103.4363 H        40        0    0.0000
    244 H         188.8894   85.1898  103.4355 H        40        0    0.0000
    245 H         190.7958   85.9718  104.8905 H        40        0    0.0000
    246 H         190.1315   87.6018  104.8876 H        40        0    0.0000
    247 C         188.9649   86.1781  106.0630 C.3      41        0    0.0000
    248 C         189.6685   86.4642  107.3942 C.3      41        0    0.0000
    249 H         188.0298   86.7485  106.0017 H        41        0    0.0000
    250 H         188.6914   85.1174  106.0024 H        41        0    0.0000
    251 H         190.6024   85.8919  107.4566 H        41        0    0.0000
    252 H         189.9442   87.5244  107.4538 H        41        0    0.0000
    253 C         188.7723   86.1049  108.6292 C.3      42        0    0.0000
    254 C         189.4763   86.3902  109.9604 C.3      42        0    0.0000
    255 H         187.8387   86.6777  108.5671 H        42        0    0.0000
    256 H         188.4962   85.0449  108.5693 H        42        0    0.0000
    257 H         190.4143   85.8244  110.0187 H        42        0    0.0000
    258 H         189.7444   87.4521  110.0241 H        42        0    0.0000
    259 C         188.5848   86.0193  111.1954 C.3      43        0    0.0000
    260 C         189.2877   86.3073  112.5266 C.3      43        0    0.0000
    261 H         187.6459   86.5836  111.1360 H        43        0    0.0000
    262 H         188.3183   84.9569  111.1328 H        43        0    0.0000
    263 H         190.2223   85.7362  112.5897 H        43        0    0.0000
    264 H         189.5619   87.3678  112.5854 H        43        0    0.0000
    265 C         188.3915   85.9477  113.7615 C.3      44        0    0.0000
    266 C         189.0945   86.2355  115.0927 C.3      44        0    0.0000
    267 H         187.4570   86.5189  113.6984 H        44        0    0.0000
    268 H         188.1172   84.8872  113.7026 H        44        0    0.0000
    269 H         190.0468   85.6931  115.1402 H        44        0    0.0000
    270 H         189.3359   87.3031  115.1675 H        44        0    0.0000
    271 C         188.2187   85.8278  116.3273 C.3      45        0    0.0000
    272 C         188.9190   86.1215  117.6586 C.3      45        0    0.0000
    273 H         187.2644   86.3666  116.2774 H        45        0    0.0000
    274 H         187.9813   84.7591  116.2550 H        45        0    0.0000
    275 H         188.2215   85.9709  118.4919 H        45        0    0.0000
    276 H         189.7478   85.4190  117.8107 H        45        0    0.0000
    277 C         189.4780   87.5846  117.7257 C.3      46        0    0.0000
    278 C         190.4068   87.7970  118.9262 C.3      46        0    0.0000
    279 H         190.0131   87.8018  116.7930 H        46        0    0.0000
    280 H         188.6339   88.2837  117.7748 H        46        0    0.0000
    281 H         191.4516   87.8266  118.5928 H        46        0    0.0000
    282 H         190.1985   88.7662  119.3961 H        46        0    0.0000
    283 C         190.2521   86.6692  120.0040 C.3      47        0    0.0000
    284 C         191.1070   86.9337  121.2483 C.3      47        0    0.0000
    285 H         189.1944   86.5904  120.2841 H        47        0    0.0000
    286 H         190.5310   85.7087  119.5532 H        47        0    0.0000
    287 H         192.0534   86.3832  121.1784 H        47        0    0.0000
    288 H         191.3654   87.9982  121.3078 H        47        0    0.0000
    289 C         190.3761   86.5163  122.5708 C.3      48        0    0.0000
    290 C         191.1895   85.5089  123.3909 C.3      48        0    0.0000
    291 H         190.1819   87.4168  123.1667 H        48        0    0.0000
    292 H         189.3979   86.0907  122.3151 H        48        0    0.0000
    293 H         191.3838   84.6085  122.7950 H        48        0    0.0000
    294 H         192.1677   85.9345  123.6466 H        48        0    0.0000
    295 H         190.6813   85.2187  124.3105 H        48        0    0.0000
    296 H         179.2798  105.1487  121.7450 H         0        0    0.0000
@<TRIPOS>BOND
     1     1     2      1
     2     1     3      1
     3     1     4      1
     4     1   296      H
     5     2     5      1
     6     2     6      1
     7     2     7      1
     8     7     8      1
     9     7     9      1
    10     7    10      1
    11     8    11      1
    12     8    12      1
    13     8    13      1
    14    13    14      1
    15    13    15      1
    16    13    16      1
    17    14    17      1
    18    14    18      1
    19    14    19      1
    20    19    20      1
    21    19    21      1
    22    19    22      1
    23    20    23      1
    24    20    24      1
    25    20    25      1
    26    25    26      1
    27    25    27      1
    28    25    28      1
    29    26    29      1
    30    26    30      1
    31    26    31      1
    32    31    32      1
    33    31    33      1
    34    31    34      1
    35    32    35      1
    36    32    36      1
    37    32    37      1
    38    37    38      1
    39    37    39      1
    40    37    40      1
    41    38    41      1
    42    38    42      1
    43    38    43      1
    44    43    44      1
    45    43    45      1
    46    43    46      1
    47    44    47      1
    48    44    48      1
    49    44    49      1
    50    49    50      1
    51    49    51      1
    52    49    52      1
    53    50    53      1
    54    50    54      1
    55    50    55      1
    56    55    56      1
    57    55    57      1
    58    55    58      1
    59    56    59      1
    60    56    60      1
    61    56    61      1
    62    61    62      1
    63    61    63      1
    64    61    64      1
    65    62    65      1
    66    62    66      1
    67    62    67      1
    68    67    68      1
    69    67    69      1
    70    67    70      1
    71    68    71      1
    72    68    72      1
    73    68    73      1
    74    73    74      1
    75    73    75      1
    76    73    76      1
    77    74    77      1
    78    74    78      1
    79    74    79      1
    80    79    80      1
    81    79    81      1
    82    79    82      1
    83    80    83      1
    84    80    84      1
    85    80    85      1
    86    85    86      1
    87    85    87      1
    88    85    88      1
    89    86    89      1
    90    86    90      1
    91    86    91      1
    92    91    92      1
    93    91    93      1
    94    91    94      1
    95    92    95      1
    96    92    96      1
    97    92    97      1
    98    97    98      1
    99    97    99      1
   100    97   100      1
   101    98   101      1
   102    98   102      1
   103    98   103      1
   104   103   104      1
   105   103   105      1
   106   103   106      1
   107   104   107      1
   108   104   108      1
   109   104   109      1
   110   109   110      1
   111   109   111      1
   112   109   112      1
   113   110   113      1
   114   110   114      1
   115   110   115      1
   116   115   116      1
   117   115   117      1
   118   115   118      1
   119   116   119      1
   120   116   120      1
   121   116   121      1
   122   121   122      1
   123   121   123      1
   124   121   124      1
   125   122   125      1
   126   122   126      1
   127   122   127      1
   128   127   128      1
   129   127   129      1
   130   127   130      1
   131   128   131      1
   132   128   132      1
   133   128   133      1
   134   133   134      1
   135   133   135      1
   136   133   136      1
   137   134   137      1
   138   134   138      1
   139   134   139      1
   140   139   140      1
   141   139   141      1
   142   139   142      1
   143   140   143      1
   144   140   144      1
   145   140   145      1
   146   145   146      1
   147   145   147      1
   148   145   148      1
   149   146   149      1
   150   146   150      1
   151   146   151      1
   152   151   152      1
   153   151   153      1
   154   151   154      1
   155   152   155      1
   156   152   156      1
   157   152   157      1
   158   157   158      1
   159   157   159      1
   160   157   160      1
   161   158   161      1
   162   158   162      1
   163   158   163      1
   164   163   164      1
   165   163   165      1
   166   163   166      1
   167   164   167      1
   168   164   168      1
   169   164   169      1
   170   169   170      1
   171   169   171      1
   172   169   172      1
   173   170   173      1
   174   170   174      1
   175   170   175      1
   176   175   176      1
   177   175   177      1
   178   175   178      1
   179   176   179      1
   180   176   180      1
   181   176   181      1
   182   181   182      1
   183   181   183      1
   184   181   184      1
   185   182   185      1
   186   182   186      1
   187   182   187      1
   188   187   188      1
   189   187   189      1
   190   187   190      1
   191   188   191      1
   192   188   192      1
   193   188   193      1
   194   193   194      1
   195   193   195      1
   196   193   196      1
   197   194   197      1
   198   194   198      1
   199   194   199      1
   200   199   200      1
   201   199   201      1
   202   199   202      1
   203   200   203      1
   204   200   204      1
   205   200   205      1
   206   205   206      1
   207   205   207      1
   208   205   208      1
   209   206   209      1
   210   206   210      1
   211   206   211      1
   212   211   212      1
   213   211   213      1
   214   211   214      1
   215   212   215      1
   216   212   216      1
   217   212   217      1
   218   217   218      1
   219   217   219      1
   220   217   220      1
   221   218   221      1
   222   218   222      1
   223   218   223      1
   224   223   224      1
   225   223   225      1
   226   223   226      1
   227   224   227      1
   228   224   228      1
   229   224   229      1
   230   229   230      1
   231   229   231      1
   232   229   232      1
   233   230   233      1
   234   230   234      1
   235   230   235      1
   236   235   236      1
   237   235   237      1
   238   235   238      1
   239   236   239      1
   240   236   240      1
   241   236   241      1
   242   241   242      1
   243   241   243      1
   244   241   244      1
   245   242   245      1
   246   242   246      1
   247   242   247      1
   248   247   248      1
   249   247   249      1
   250   247   250      1
   251   248   251      1
   252   248   252      1
   253   248   253      1
   254   253   254      1
   255   253   255      1
   256   253   256      1
   257   254   257      1
   258   254   258      1
   259   254   259      1
   260   259   260      1
   261   259   261      1
   262   259   262      1
   263   260   263      1
   264   260   264      1
   265   260   265      1
   266   265   266      1
   267   265   267      1
   268   265   268      1
   269   266   269      1
   270   266   270      1
   271   266   271      1
   272   271   272      1
   273   271   273      1
   274   271   274      1
   275   272   275      1
   276   272   276      1
   277   272   277      1
   278   277   278      1
   279   277   279      1
   280   277   280      1
   281   278   281      1
   282   278   282      1
   283   278   283      1
   284   283   284      1
   285   283   285      1
   286   283   286      1
   287   284   287      1
   288   284   288      1
   289   284   289      1
   290   289   290      1
   291   289   291      1
   292   289   292      1
   293   290   293      1
   294   290   294      1
   295   290   295      H
