###
### Created by PolyChef-cpp17 on Thu Feb 27 19:40:30 2025
###

@<TRIPOS>MOLECULE
NO_INFO
140 139 1 0 0
SMALL
USER_CHARGES


@<TRIPOS>ATOM
      1 C         129.2798  191.7487  120.6551 C.3       0        0    0.0000
      2 C         128.4513  190.5975  120.0742 C.3       0        0    0.0000
      3 H         128.8875  192.7103  120.3015 H         0        0    0.0000
      4 H         130.3162  191.6821  120.3014 H         0        0    0.0000
      5 H         128.4071  189.7673  120.7900 H         0        0    0.0000
      6 H         127.4176  190.9249  119.9073 H         0        0    0.0000
      7 C         129.0381  190.0671  118.7208 C.3       1        0    0.0000
      8 C         129.6362  191.1906  117.8670 C.3       1        0    0.0000
      9 H         129.8038  189.3123  118.9390 H         1        0    0.0000
     10 H         128.2414  189.5563  118.1659 H         1        0    0.0000
     11 H         128.9454  192.0421  117.8284 H         1        0    0.0000
     12 H         130.5634  191.5577  118.3242 H         1        0    0.0000
     13 C         129.9451  190.7238  116.4027 C.3       2        0    0.0000
     14 C         129.8909  191.8819  115.4002 C.3       2        0    0.0000
     15 H         130.9368  190.2552  116.3828 H         2        0    0.0000
     16 H         129.2239  189.9472  116.1195 H         2        0    0.0000
     17 H         128.9717  192.4628  115.5458 H         2        0    0.0000
     18 H         130.7285  192.5690  115.5735 H         2        0    0.0000
     19 C         129.9444  191.3847  113.9145 C.3       3        0    0.0000
     20 C         129.8143  192.5362  112.9115 C.3       3        0    0.0000
     21 H         130.8894  190.8510  113.7540 H         3        0    0.0000
     22 H         129.1401  190.6555  113.7565 H         3        0    0.0000
     23 H         128.8755  193.0780  113.0806 H         3        0    0.0000
     24 H         130.6262  193.2587  113.0609 H         3        0    0.0000
     25 C         129.8491  192.0370  111.4259 C.3       4        0    0.0000
     26 C         129.9368  193.1951  110.4258 C.3       4        0    0.0000
     27 H         130.7066  191.3645  111.2989 H         4        0    0.0000
     28 H         128.9492  191.4401  111.2323 H         4        0    0.0000
     29 H         129.0623  193.8492  110.5302 H         4        0    0.0000
     30 H         130.8187  193.8114  110.6404 H         4        0    0.0000
     31 C         130.0192  192.6943  108.9426 C.3       5        0    0.0000
     32 C         129.0063  193.3999  108.0343 C.3       5        0    0.0000
     33 H         131.0377  192.8592  108.5698 H         5        0    0.0000
     34 H         129.8490  191.6106  108.9253 H         5        0    0.0000
     35 H         128.0413  193.4927  108.5477 H         5        0    0.0000
     36 H         129.3452  194.4198  107.8139 H         5        0    0.0000
     37 C         128.7881  192.6369  106.6824 C.3       6        0    0.0000
     38 C         129.2124  193.4717  105.4691 C.3       6        0    0.0000
     39 H         129.3557  191.6985  106.7104 H         6        0    0.0000
     40 H         127.7293  192.3622  106.5983 H         6        0    0.0000
     41 H         128.3760  194.0959  105.1309 H         6        0    0.0000
     42 H         130.0233  194.1558  105.7483 H         6        0    0.0000
     43 C         129.6931  192.5797  104.2730 C.3       7        0    0.0000
     44 C         129.1763  193.0901  102.9234 C.3       7        0    0.0000
     45 H         130.7899  192.5531  104.2702 H         7        0    0.0000
     46 H         129.3535  191.5501  104.4408 H         7        0    0.0000
     47 H         128.1013  193.2995  102.9871 H         7        0    0.0000
     48 H         129.6670  194.0370  102.6664 H         7        0    0.0000
     49 C         129.4232  192.0625  101.7655 C.3       8        0    0.0000
     50 C         129.2615  192.6983  100.3804 C.3       8        0    0.0000
     51 H         130.4322  191.6452  101.8724 H         8        0    0.0000
     52 H         128.7226  191.2261  101.8797 H         8        0    0.0000
     53 H         128.2312  193.0504  100.2461 H         8        0    0.0000
     54 H         129.9093  193.5793  100.2929 H         8        0    0.0000
     55 C         129.6088  191.6989   99.2237 C.3       9        0    0.0000
     56 C         129.4039  192.3205   97.8378 C.3       9        0    0.0000
     57 H         130.6497  191.3722   99.3393 H         9        0    0.0000
     58 H         128.9839  190.8035   99.3305 H         9        0    0.0000
     59 H         128.3656  192.6563   97.7260 H         9        0    0.0000
     60 H         130.0364  193.2100   97.7273 H         9        0    0.0000
     61 C         129.7376  191.3164   96.6811 C.3      10        0    0.0000
     62 C         129.5412  191.9408   95.2953 C.3      10        0    0.0000
     63 H         130.7739  190.9755   96.7967 H        10        0    0.0000
     64 H         129.1005  190.4297   96.7878 H        10        0    0.0000
     65 H         128.5067  192.2878   95.1822 H        10        0    0.0000
     66 H         130.1833  192.8237   95.1861 H        10        0    0.0000
     67 C         129.8657  190.9338   94.1385 C.3      11        0    0.0000
     68 C         129.6692  191.5582   92.7527 C.3      11        0    0.0000
     69 H         130.9003  190.5870   94.2515 H        11        0    0.0000
     70 H         129.2238  190.0509   94.2478 H        11        0    0.0000
     71 H         128.6349  191.9064   92.6402 H        11        0    0.0000
     72 H         130.3122  192.4402   92.6428 H        11        0    0.0000
     73 C         129.9917  190.5506   91.5959 C.3      12        0    0.0000
     74 C         129.7828  191.1710   90.2101 C.3      12        0    0.0000
     75 H         131.0289  190.2096   91.7029 H        12        0    0.0000
     76 H         129.3553  189.6644   91.7112 H        12        0    0.0000
     77 H         128.7434  191.5042   90.0999 H        12        0    0.0000
     78 H         130.4128  192.0621   90.0980 H        12        0    0.0000
     79 C         130.1169  190.1671   89.0533 C.3      13        0    0.0000
     80 C         129.9099  190.7882   87.6674 C.3      13        0    0.0000
     81 H         131.1559  189.8329   89.1643 H        13        0    0.0000
     82 H         129.4859  189.2767   89.1645 H        13        0    0.0000
     83 H         128.8701  191.1194   87.5552 H        13        0    0.0000
     84 H         130.5384  191.6806   87.5575 H        13        0    0.0000
     85 C         130.2486  189.7859   86.5107 C.3      14        0    0.0000
     86 C         130.0382  190.4058   85.1248 C.3      14        0    0.0000
     87 H         131.2893  189.4567   86.6214 H        14        0    0.0000
     88 H         129.6220  188.8923   86.6222 H        14        0    0.0000
     89 H         128.9958  190.7284   85.0115 H        14        0    0.0000
     90 H         130.6594  191.3034   85.0159 H        14        0    0.0000
     91 C         130.3865  189.4068   83.9680 C.3      15        0    0.0000
     92 C         130.1758  190.0266   82.5822 C.3      15        0    0.0000
     93 H         131.4290  189.0842   84.0813 H        15        0    0.0000
     94 H         129.7654  188.5091   84.0770 H        15        0    0.0000
     95 H         129.2559  190.6243   82.5734 H        15        0    0.0000
     96 H         130.9994  190.7123   82.3477 H        15        0    0.0000
     97 C         130.0845  188.9420   81.4540 C.3      16        0    0.0000
     98 C         129.8465  189.5602   80.0719 C.3      16        0    0.0000
     99 H         131.0127  188.3572   81.4497 H        16        0    0.0000
    100 H         129.2738  188.2445   81.6988 H        16        0    0.0000
    101 H         130.1412  190.6169   80.0767 H        16        0    0.0000
    102 H         130.4746  189.0614   79.3235 H        16        0    0.0000
    103 C         128.3477  189.4556   79.6244 C.3      17        0    0.0000
    104 C         128.2081  189.0970   78.1409 C.3      17        0    0.0000
    105 H         127.8459  188.7009   80.2427 H        17        0    0.0000
    106 H         127.8501  190.4118   79.8287 H        17        0    0.0000
    107 H         128.1769  190.0107   77.5343 H        17        0    0.0000
    108 H         129.0844  188.5274   77.8075 H        17        0    0.0000
    109 C         126.9180  188.2546   77.8521 C.3      18        0    0.0000
    110 C         126.8946  187.6992   76.4238 C.3      18        0    0.0000
    111 H         126.8631  187.4324   78.5764 H        18        0    0.0000
    112 H         126.0375  188.8858   78.0247 H        18        0    0.0000
    113 H         126.7768  188.5182   75.7036 H        18        0    0.0000
    114 H         127.8505  187.2124   76.1938 H        18        0    0.0000
    115 C         125.7362  186.6654   76.2073 C.3      19        0    0.0000
    116 C         125.8127  185.9861   74.8355 C.3      19        0    0.0000
    117 H         125.7814  185.9118   77.0033 H        19        0    0.0000
    118 H         124.7752  187.1829   76.3177 H        19        0    0.0000
    119 H         126.0961  184.9328   74.9526 H        19        0    0.0000
    120 H         124.8262  185.9955   74.3556 H        19        0    0.0000
    121 C         126.8443  186.6842   73.8837 C.3      20        0    0.0000
    122 C         127.2341  185.7952   72.6976 C.3      20        0    0.0000
    123 H         126.4114  187.6252   73.5221 H        20        0    0.0000
    124 H         127.7367  186.9502   74.4636 H        20        0    0.0000
    125 H         126.4100  185.1144   72.4509 H        20        0    0.0000
    126 H         127.4107  186.4116   71.8074 H        20        0    0.0000
    127 C         128.5202  184.9472   72.9882 C.3      21        0    0.0000
    128 C         128.9646  184.1299   71.7701 C.3      21        0    0.0000
    129 H         129.3257  185.6227   73.3021 H        21        0    0.0000
    130 H         128.3200  184.2803   73.8359 H        21        0    0.0000
    131 H         129.9315  184.4963   71.4037 H        21        0    0.0000
    132 H         129.1125  183.0808   72.0547 H        21        0    0.0000
    133 C         127.9235  184.1940   70.5998 C.3      22        0    0.0000
    134 C         128.4604  183.5646   69.3096 C.3      22        0    0.0000
    135 H         127.0058  183.6819   70.9145 H        22        0    0.0000
    136 H         127.6543  185.2427   70.4231 H        22        0    0.0000
    137 H         129.3782  184.0768   68.9949 H        22        0    0.0000
    138 H         128.7297  182.5159   69.4864 H        22        0    0.0000
    139 H         127.7366  183.6092   68.4959 H        22        0    0.0000
    140 H         129.2798  191.7487  121.7450 H         0        0    0.0000
@<TRIPOS>BOND
     1     1     2      1
     2     1     3      1
     3     1     4      1
     4     1   140      H
     5     2     5      1
     6     2     6      1
     7     2     7      1
     8     7     8      1
     9     7     9      1
    10     7    10      1
    11     8    11      1
    12     8    12      1
    13     8    13      1
    14    13    14      1
    15    13    15      1
    16    13    16      1
    17    14    17      1
    18    14    18      1
    19    14    19      1
    20    19    20      1
    21    19    21      1
    22    19    22      1
    23    20    23      1
    24    20    24      1
    25    20    25      1
    26    25    26      1
    27    25    27      1
    28    25    28      1
    29    26    29      1
    30    26    30      1
    31    26    31      1
    32    31    32      1
    33    31    33      1
    34    31    34      1
    35    32    35      1
    36    32    36      1
    37    32    37      1
    38    37    38      1
    39    37    39      1
    40    37    40      1
    41    38    41      1
    42    38    42      1
    43    38    43      1
    44    43    44      1
    45    43    45      1
    46    43    46      1
    47    44    47      1
    48    44    48      1
    49    44    49      1
    50    49    50      1
    51    49    51      1
    52    49    52      1
    53    50    53      1
    54    50    54      1
    55    50    55      1
    56    55    56      1
    57    55    57      1
    58    55    58      1
    59    56    59      1
    60    56    60      1
    61    56    61      1
    62    61    62      1
    63    61    63      1
    64    61    64      1
    65    62    65      1
    66    62    66      1
    67    62    67      1
    68    67    68      1
    69    67    69      1
    70    67    70      1
    71    68    71      1
    72    68    72      1
    73    68    73      1
    74    73    74      1
    75    73    75      1
    76    73    76      1
    77    74    77      1
    78    74    78      1
    79    74    79      1
    80    79    80      1
    81    79    81      1
    82    79    82      1
    83    80    83      1
    84    80    84      1
    85    80    85      1
    86    85    86      1
    87    85    87      1
    88    85    88      1
    89    86    89      1
    90    86    90      1
    91    86    91      1
    92    91    92      1
    93    91    93      1
    94    91    94      1
    95    92    95      1
    96    92    96      1
    97    92    97      1
    98    97    98      1
    99    97    99      1
   100    97   100      1
   101    98   101      1
   102    98   102      1
   103    98   103      1
   104   103   104      1
   105   103   105      1
   106   103   106      1
   107   104   107      1
   108   104   108      1
   109   104   109      1
   110   109   110      1
   111   109   111      1
   112   109   112      1
   113   110   113      1
   114   110   114      1
   115   110   115      1
   116   115   116      1
   117   115   117      1
   118   115   118      1
   119   116   119      1
   120   116   120      1
   121   116   121      1
   122   121   122      1
   123   121   123      1
   124   121   124      1
   125   122   125      1
   126   122   126      1
   127   122   127      1
   128   127   128      1
   129   127   129      1
   130   127   130      1
   131   128   131      1
   132   128   132      1
   133   128   133      1
   134   133   134      1
   135   133   135      1
   136   133   136      1
   137   134   137      1
   138   134   138      1
   139   134   139      H
