###
### Created by PolyChef-cpp17 on Thu Feb 27 19:40:30 2025
###

@<TRIPOS>MOLECULE
NO_INFO
500 499 1 0 0
SMALL
USER_CHARGES


@<TRIPOS>ATOM
      1 C         189.2798   53.1887  -39.3449 C.3       0        0    0.0000
      2 C         187.8706   53.0282  -38.7641 C.3       0        0    0.0000
      3 H         189.9271   52.3766  -38.9913 H         0        0    0.0000
      4 H         189.7280   54.1255  -38.9913 H         0        0    0.0000
      5 H         187.3720   54.0040  -38.7115 H         0        0    0.0000
      6 H         187.2612   52.3982  -39.4239 H         0        0    0.0000
      7 C         187.8874   52.3915  -37.3317 C.3       1        0    0.0000
      8 C         189.1652   52.7351  -36.5583 C.3       1        0    0.0000
      9 H         187.0072   52.7421  -36.7786 H         1        0    0.0000
     10 H         187.7866   51.3033  -37.4272 H         1        0    0.0000
     11 H         190.0454   52.5588  -37.1889 H         1        0    0.0000
     12 H         189.1724   53.8008  -36.2981 H         1        0    0.0000
     13 C         189.3086   51.8931  -35.2438 C.3       2        0    0.0000
     14 C         190.2052   52.5809  -34.2083 C.3       2        0    0.0000
     15 H         188.3101   51.7224  -34.8225 H         2        0    0.0000
     16 H         189.7160   50.9068  -35.4982 H         2        0    0.0000
     17 H         191.2600   52.4601  -34.4847 H         2        0    0.0000
     18 H         190.0047   53.6594  -34.1943 H         2        0    0.0000
     19 C         189.9925   52.0085  -32.7645 C.3       3        0    0.0000
     20 C         190.6191   52.9012  -31.6877 C.3       3        0    0.0000
     21 H         188.9162   51.8988  -32.5826 H         3        0    0.0000
     22 H         190.4244   51.0012  -32.7163 H         3        0    0.0000
     23 H         191.7080   52.9378  -31.8163 H         3        0    0.0000
     24 H         190.2546   53.9305  -31.7934 H         3        0    0.0000
     25 C         190.2982   52.3979  -30.2381 C.3       4        0    0.0000
     26 C         190.8924   53.3121  -29.1610 C.3       4        0    0.0000
     27 H         189.2094   52.3344  -30.1188 H         4        0    0.0000
     28 H         190.6876   51.3788  -30.1233 H         4        0    0.0000
     29 H         191.9822   53.3673  -29.2739 H         4        0    0.0000
     30 H         190.5110   54.3335  -29.2822 H         4        0    0.0000
     31 C         190.5590   52.8169  -27.7115 C.3       5        0    0.0000
     32 C         191.1777   53.7148  -26.6343 C.3       5        0    0.0000
     33 H         189.4691   52.7820  -27.5916 H         5        0    0.0000
     34 H         190.9216   51.7878  -27.5972 H         5        0    0.0000
     35 H         192.2673   53.7521  -26.7560 H         5        0    0.0000
     36 H         190.8127   54.7432  -26.7467 H         5        0    0.0000
     37 C         190.8479   53.2172  -25.1848 C.3       6        0    0.0000
     38 C         191.4488   54.1268  -24.1076 C.3       6        0    0.0000
     39 H         189.7583   53.1651  -25.0682 H         6        0    0.0000
     40 H         191.2265   52.1942  -25.0674 H         6        0    0.0000
     41 H         192.5388   54.1764  -24.2223 H         6        0    0.0000
     42 H         191.0727   55.1505  -24.2269 H         6        0    0.0000
     43 C         191.1154   53.6317  -22.6581 C.3       7        0    0.0000
     44 C         192.1808   54.0541  -21.6405 C.3       7        0    0.0000
     45 H         190.1362   54.0302  -22.3648 H         7        0    0.0000
     46 H         191.0197   52.5389  -22.6710 H         7        0    0.0000
     47 H         193.1747   53.7433  -21.9857 H         7        0    0.0000
     48 H         192.2053   55.1474  -21.5533 H         7        0    0.0000
     49 C         191.9238   53.4396  -20.2214 C.3       8        0    0.0000
     50 C         191.9161   54.5051  -19.1198 C.3       8        0    0.0000
     51 H         190.9652   52.9061  -20.2355 H         8        0    0.0000
     52 H         192.6982   52.6905  -20.0149 H         8        0    0.0000
     53 H         192.9448   54.7662  -18.8419 H         8        0    0.0000
     54 H         191.4465   55.4251  -19.4895 H         8        0    0.0000
     55 C         191.1517   54.0279  -17.8370 C.3       9        0    0.0000
     56 C         192.0344   54.0720  -16.5848 C.3       9        0    0.0000
     57 H         190.2672   54.6615  -17.6963 H         9        0    0.0000
     58 H         190.7851   53.0074  -18.0030 H         9        0    0.0000
     59 H         193.0444   53.7167  -16.8239 H         9        0    0.0000
     60 H         192.1390   55.1064  -16.2346 H         9        0    0.0000
     61 C         191.4548   53.1998  -15.4184 C.3      10        0    0.0000
     62 C         191.7569   53.7982  -14.0401 C.3      10        0    0.0000
     63 H         190.3709   53.1004  -15.5560 H        10        0    0.0000
     64 H         191.8754   52.1890  -15.4900 H        10        0    0.0000
     65 H         192.8342   53.7517  -13.8378 H        10        0    0.0000
     66 H         191.4784   54.8592  -14.0214 H        10        0    0.0000
     67 C         190.9942   53.0552  -12.8896 C.3      11        0    0.0000
     68 C         191.4415   53.5220  -11.5001 C.3      11        0    0.0000
     69 H         189.9171   53.2224  -13.0139 H        11        0    0.0000
     70 H         191.1596   51.9758  -12.9952 H        11        0    0.0000
     71 H         192.5256   53.3933  -11.3909 H        11        0    0.0000
     72 H         191.2378   54.5932  -11.3794 H        11        0    0.0000
     73 C         190.7213   52.7379  -10.3495 C.3      12        0    0.0000
     74 C         191.1593   53.2134   -8.9598 C.3      12        0    0.0000
     75 H         189.6369   52.8590  -10.4640 H        12        0    0.0000
     76 H         190.9326   51.6676  -10.4648 H        12        0    0.0000
     77 H         192.2433   53.0897   -8.8444 H        12        0    0.0000
     78 H         190.9505   54.2843   -8.8455 H        12        0    0.0000
     79 C         190.4362   52.4319   -7.8093 C.3      13        0    0.0000
     80 C         190.8750   52.9066   -6.4196 C.3      13        0    0.0000
     81 H         189.3523   52.5562   -7.9243 H        13        0    0.0000
     82 H         190.6444   51.3609   -7.9240 H        13        0    0.0000
     83 H         191.9592   52.7840   -6.3052 H        13        0    0.0000
     84 H         190.6651   53.9772   -6.3042 H        13        0    0.0000
     85 C         190.1538   52.1234   -5.2690 C.3      14        0    0.0000
     86 C         190.5895   52.6010   -3.8794 C.3      14        0    0.0000
     87 H         189.0695   52.2434   -5.3852 H        14        0    0.0000
     88 H         190.3663   51.0531   -5.3827 H        14        0    0.0000
     89 H         191.6764   52.4991   -3.7703 H        14        0    0.0000
     90 H         190.3593   53.6669   -3.7587 H        14        0    0.0000
     91 C         189.8888   51.7993   -2.7289 C.3      15        0    0.0000
     92 C         190.3124   52.2876   -1.3392 C.3      15        0    0.0000
     93 H         188.8018   51.8916   -2.8448 H        15        0    0.0000
     94 H         190.1285   50.7348   -2.8428 H        15        0    0.0000
     95 H         191.3926   52.1505   -1.2055 H        15        0    0.0000
     96 H         190.1169   53.3627   -1.2425 H        15        0    0.0000
     97 C         189.5611   51.5319   -0.1894 C.3      16        0    0.0000
     98 C         189.6885   52.2507    1.1582 C.3      16        0    0.0000
     99 H         188.5036   51.4321   -0.4640 H        16        0    0.0000
    100 H         189.9640   50.5145   -0.1127 H        16        0    0.0000
    101 H         189.8756   51.5222    1.9569 H        16        0    0.0000
    102 H         190.5504   52.9293    1.1426 H        16        0    0.0000
    103 C         188.4036   53.0742    1.5162 C.3      17        0    0.0000
    104 C         188.0306   52.9538    2.9979 C.3      17        0    0.0000
    105 H         188.5737   54.1261    1.2553 H        17        0    0.0000
    106 H         187.5736   52.7245    0.8898 H        17        0    0.0000
    107 H         188.0859   51.9053    3.3158 H        17        0    0.0000
    108 H         188.7503   53.5079    3.6132 H        17        0    0.0000
    109 C         186.5899   53.4962    3.2939 C.3      18        0    0.0000
    110 C         186.2883   53.5544    4.7954 C.3      18        0    0.0000
    111 H         186.4902   54.4950    2.8511 H        18        0    0.0000
    112 H         185.8591   52.8530    2.7881 H        18        0    0.0000
    113 H         186.3277   52.5464    5.2264 H        18        0    0.0000
    114 H         187.0544   54.1473    5.3103 H        18        0    0.0000
    115 C         184.8813   54.1774    5.0950 C.3      19        0    0.0000
    116 C         184.5945   54.2685    6.5979 C.3      19        0    0.0000
    117 H         184.8325   55.1752    4.6416 H        19        0    0.0000
    118 H         184.1130   53.5692    4.6016 H        19        0    0.0000
    119 H         184.6343   53.2696    7.0497 H        19        0    0.0000
    120 H         185.3678   54.8691    7.0927 H        19        0    0.0000
    121 C         183.1928   54.9032    6.8978 C.3      20        0    0.0000
    122 C         182.9080   54.9987    8.4007 C.3      20        0    0.0000
    123 H         183.1517   55.9007    6.4430 H        20        0    0.0000
    124 H         182.4192   54.3005    6.4059 H        20        0    0.0000
    125 H         182.9486   54.0012    8.8554 H        20        0    0.0000
    126 H         183.6819   55.6009    8.8927 H        20        0    0.0000
    127 C         181.5067   55.6341    8.7006 C.3      21        0    0.0000
    128 C         181.2202   55.7259   10.2035 C.3      21        0    0.0000
    129 H         181.4672   56.6328    8.2484 H        21        0    0.0000
    130 H         180.7330   55.0336    8.2062 H        21        0    0.0000
    131 H         181.2620   54.7275   10.6561 H        21        0    0.0000
    132 H         181.9926   56.3284   10.6975 H        21        0    0.0000
    133 C         179.8175   56.3583   10.5033 C.3      22        0    0.0000
    134 C         179.5325   56.4535   12.0062 C.3      22        0    0.0000
    135 H         179.7747   57.3557   10.0485 H        22        0    0.0000
    136 H         179.0449   55.7544   10.0115 H        22        0    0.0000
    137 H         179.5705   55.4555   12.4603 H        22        0    0.0000
    138 H         180.3077   57.0534   12.4989 H        22        0    0.0000
    139 C         178.1326   57.0921   12.3062 C.3      23        0    0.0000
    140 C         177.8433   57.1779   13.8089 C.3      23        0    0.0000
    141 H         178.0973   58.0930   11.8586 H        23        0    0.0000
    142 H         177.3580   56.4964   11.8074 H        23        0    0.0000
    143 H         177.8830   56.1774   14.2573 H        23        0    0.0000
    144 H         178.6155   57.7772   14.3070 H        23        0    0.0000
    145 C         176.4408   57.8107   14.1087 C.3      24        0    0.0000
    146 C         176.1574   57.9095   15.6117 C.3      24        0    0.0000
    147 H         176.3973   58.8070   13.6514 H        24        0    0.0000
    148 H         175.6678   57.2054   13.6192 H        24        0    0.0000
    149 H         176.2015   56.9133   16.0691 H        24        0    0.0000
    150 H         176.9301   58.5154   16.1011 H        24        0    0.0000
    151 C         174.7545   58.5415   15.9115 C.3      25        0    0.0000
    152 C         174.4721   58.6425   17.4145 C.3      25        0    0.0000
    153 H         174.7098   59.5370   15.4527 H        25        0    0.0000
    154 H         173.9818   57.9347   15.4235 H        25        0    0.0000
    155 H         174.5169   57.6470   17.8734 H        25        0    0.0000
    156 H         175.2449   59.2493   17.9025 H        25        0    0.0000
    157 C         173.0692   59.2744   17.7143 C.3      26        0    0.0000
    158 C         172.7868   59.3754   19.2174 C.3      26        0    0.0000
    159 H         173.0245   60.2699   17.2554 H        26        0    0.0000
    160 H         172.2965   58.6676   17.2263 H        26        0    0.0000
    161 H         172.8358   58.3805   19.6770 H        26        0    0.0000
    162 H         173.5572   59.9858   19.7046 H        26        0    0.0000
    163 C         171.3814   60.0019   19.5170 C.3      27        0    0.0000
    164 C         171.1017   60.1088   21.0202 C.3      27        0    0.0000
    165 H         171.3307   60.9948   19.0534 H        27        0    0.0000
    166 H         170.6107   59.3887   19.0337 H        27        0    0.0000
    167 H         171.1521   59.1158   21.4838 H        27        0    0.0000
    168 H         171.8726   60.7217   21.5036 H        27        0    0.0000
    169 C         169.6965   60.7356   21.3199 C.3      28        0    0.0000
    170 C         169.4160   60.8408   22.8229 C.3      28        0    0.0000
    171 H         169.6466   61.7292   20.8574 H        28        0    0.0000
    172 H         168.9257   60.1235   20.8353 H        28        0    0.0000
    173 H         169.4656   59.8472   23.2853 H        28        0    0.0000
    174 H         170.1870   61.4527   23.3075 H        28        0    0.0000
    175 C         168.0109   61.4680   23.1227 C.3      29        0    0.0000
    176 C         167.7256   61.5625   24.6256 C.3      29        0    0.0000
    177 H         167.9644   62.4651   22.6675 H        29        0    0.0000
    178 H         167.2406   60.8610   22.6310 H        29        0    0.0000
    179 H         167.7734   60.5655   25.0809 H        29        0    0.0000
    180 H         168.4952   62.1705   25.1170 H        29        0    0.0000
    181 C         166.3197   62.1880   24.9252 C.3      30        0    0.0000
    182 C         166.0383   62.2911   26.4283 C.3      30        0    0.0000
    183 H         166.2695   63.1822   24.4640 H        30        0    0.0000
    184 H         165.5496   61.5761   24.4394 H        30        0    0.0000
    185 H         166.0844   61.2964   26.8887 H        30        0    0.0000
    186 H         166.8108   62.8995   26.9148 H        30        0    0.0000
    187 C         164.6350   62.9222   26.7280 C.3      31        0    0.0000
    188 C         164.3484   63.0140   28.2309 C.3      31        0    0.0000
    189 H         164.5922   63.9205   26.2752 H        31        0    0.0000
    190 H         163.8632   62.3189   26.2341 H        31        0    0.0000
    191 H         164.3943   62.0161   28.6842 H        31        0    0.0000
    192 H         165.1185   63.6199   28.7243 H        31        0    0.0000
    193 C         162.9432   63.6409   28.5305 C.3      32        0    0.0000
    194 C         162.6633   63.7475   30.0336 C.3      32        0    0.0000
    195 H         162.8931   64.6341   28.0672 H        32        0    0.0000
    196 H         162.1723   63.0284   28.0468 H        32        0    0.0000
    197 H         162.7090   62.7537   30.4961 H        32        0    0.0000
    198 H         163.4367   64.3562   30.5181 H        32        0    0.0000
    199 C         161.2607   64.3803   30.3334 C.3      33        0    0.0000
    200 C         160.9714   64.4663   31.8360 C.3      33        0    0.0000
    201 H         161.2210   65.3807   29.8848 H        33        0    0.0000
    202 H         160.4886   63.7808   29.8354 H        33        0    0.0000
    203 H         161.0116   63.4660   32.2847 H        33        0    0.0000
    204 H         161.7434   65.0661   32.3340 H        33        0    0.0000
    205 C         159.5686   65.0986   32.1357 C.3      34        0    0.0000
    206 C         159.2800   65.1858   33.6384 C.3      34        0    0.0000
    207 H         159.5282   66.0985   31.6862 H        34        0    0.0000
    208 H         158.7967   64.4982   31.6386 H        34        0    0.0000
    209 H         159.3206   64.1859   34.0880 H        34        0    0.0000
    210 H         160.0518   65.7863   34.1355 H        34        0    0.0000
    211 C         157.8771   65.8180   33.9382 C.3      35        0    0.0000
    212 C         157.5949   65.9195   35.4412 C.3      35        0    0.0000
    213 H         157.8323   66.8133   33.4789 H        35        0    0.0000
    214 H         157.1043   65.2110   33.4505 H        35        0    0.0000
    215 H         157.6398   64.9242   35.9004 H        35        0    0.0000
    216 H         158.3676   66.5266   35.9288 H        35        0    0.0000
    217 C         156.1918   66.5513   35.7409 C.3      36        0    0.0000
    218 C         155.9134   66.6611   37.2441 C.3      36        0    0.0000
    219 H         156.1444   67.5439   35.2760 H        36        0    0.0000
    220 H         155.4186   65.9404   35.2588 H        36        0    0.0000
    221 H         155.9599   65.6684   37.7087 H        36        0    0.0000
    222 H         156.6872   67.2713   37.7263 H        36        0    0.0000
    223 C         154.5110   67.2942   37.5438 C.3      37        0    0.0000
    224 C         154.2197   67.3758   39.0463 C.3      37        0    0.0000
    225 H         154.4728   68.2960   37.0983 H        37        0    0.0000
    226 H         153.7391   66.6970   37.0429 H        37        0    0.0000
    227 H         154.2587   66.3741   39.4920 H        37        0    0.0000
    228 H         154.9912   67.9737   39.5471 H        37        0    0.0000
    229 C         152.8168   68.0080   39.3460 C.3      38        0    0.0000
    230 C         152.5270   68.0928   40.8486 C.3      38        0    0.0000
    231 H         152.7769   69.0087   38.8981 H        38        0    0.0000
    232 H         152.0451   67.4086   38.8473 H        38        0    0.0000
    233 H         152.5619   67.0916   41.2956 H        38        0    0.0000
    234 H         153.3015   68.6880   41.3481 H        38        0    0.0000
    235 C         151.1272   68.7316   41.1485 C.3      39        0    0.0000
    236 C         150.8264   68.7929   42.6501 C.3      39        0    0.0000
    237 H         151.0991   69.7401   40.7177 H        39        0    0.0000
    238 H         150.3543   68.1474   40.6337 H        39        0    0.0000
    239 H         150.8541   67.7843   43.0809 H        39        0    0.0000
    240 H         151.5994   69.3767   43.1650 H        39        0    0.0000
    241 C         149.4268   69.4321   42.9501 C.3      40        0    0.0000
    242 C         149.1436   69.5312   44.4531 C.3      40        0    0.0000
    243 H         149.3881   70.4289   42.4935 H        40        0    0.0000
    244 H         148.6511   68.8308   42.4600 H        40        0    0.0000
    245 H         149.1756   68.5337   44.9085 H        40        0    0.0000
    246 H         149.9230   70.1269   44.9442 H        40        0    0.0000
    247 C         147.7480   70.1792   44.7532 C.3      41        0    0.0000
    248 C         147.4421   70.2304   46.2542 C.3      41        0    0.0000
    249 H         147.7300   71.1915   44.3309 H        41        0    0.0000
    250 H         146.9723   69.6059   44.2306 H        41        0    0.0000
    251 H         147.4607   69.2181   46.6766 H        41        0    0.0000
    252 H         148.2176   70.8041   46.7767 H        41        0    0.0000
    253 C         146.0462   70.8776   46.5542 C.3      42        0    0.0000
    254 C         145.7378   70.9235   48.0548 C.3      42        0    0.0000
    255 H         146.0292   71.8915   46.1355 H        42        0    0.0000
    256 H         145.2713   70.3065   46.0282 H        42        0    0.0000
    257 H         145.7530   69.9094   48.4732 H        42        0    0.0000
    258 H         146.5138   71.4931   48.5811 H        42        0    0.0000
    259 C         144.3430   71.5730   48.3551 C.3      43        0    0.0000
    260 C         144.0902   71.7374   49.8578 C.3      43        0    0.0000
    261 H         144.2926   72.5488   47.8562 H        43        0    0.0000
    262 H         143.5590   70.9497   47.9077 H        43        0    0.0000
    263 H         144.1236   70.7595   50.3540 H        43        0    0.0000
    264 H         144.8836   72.3465   50.3083 H        43        0    0.0000
    265 C         142.7058   72.4090   50.1574 C.3      44        0    0.0000
    266 C         142.2468   72.1749   51.6008 C.3      44        0    0.0000
    267 H         142.7840   73.4848   49.9573 H        44        0    0.0000
    268 H         141.9610   72.0117   49.4567 H        44        0    0.0000
    269 H         142.2209   71.0998   51.8177 H        44        0    0.0000
    270 H         142.9648   72.6202   52.3007 H        44        0    0.0000
    271 C         140.8280   72.7808   51.8788 C.3      45        0    0.0000
    272 C         140.7107   73.3602   53.2929 C.3      45        0    0.0000
    273 H         140.6246   73.5608   51.1346 H        45        0    0.0000
    274 H         140.0738   71.9983   51.7292 H        45        0    0.0000
    275 H         140.7757   72.5556   54.0357 H        45        0    0.0000
    276 H         141.5482   74.0405   53.4913 H        45        0    0.0000
    277 C         139.3664   74.1379   53.5066 C.3      46        0    0.0000
    278 C         138.7595   73.8795   54.8900 C.3      46        0    0.0000
    279 H         139.5532   75.2106   53.3722 H        46        0    0.0000
    280 H         138.6578   73.8410   52.7235 H        46        0    0.0000
    281 H         138.7308   72.8017   55.0928 H        46        0    0.0000
    282 H         139.3895   74.3296   55.6672 H        46        0    0.0000
    283 C         137.3078   74.4568   55.0192 C.3      47        0    0.0000
    284 C         136.9383   74.7800   56.4711 C.3      47        0    0.0000
    285 H         137.2301   75.3600   54.4013 H        47        0    0.0000
    286 H         136.5996   73.7291   54.6039 H        47        0    0.0000
    287 H         136.9098   73.8587   57.0661 H        47        0    0.0000
    288 H         137.7061   75.4217   56.9208 H        47        0    0.0000
    289 C         135.5494   75.4980   56.5850 C.3      48        0    0.0000
    290 C         135.0634   75.5961   58.0352 C.3      48        0    0.0000
    291 H         135.6328   76.5007   56.1476 H        48        0    0.0000
    292 H         134.8173   74.9499   55.9791 H        48        0    0.0000
    293 H         135.0200   74.5968   58.4858 H        48        0    0.0000
    294 H         135.7752   76.1800   58.6318 H        48        0    0.0000
    295 C         133.6480   76.2612   58.1438 C.3      49        0    0.0000
    296 C         133.1850   76.4079   59.5975 C.3      49        0    0.0000
    297 H         133.6813   77.2446   57.6585 H        49        0    0.0000
    298 H         132.9284   75.6555   57.5791 H        49        0    0.0000
    299 H         133.1386   75.4230   60.0786 H        49        0    0.0000
    300 H         133.9116   77.0020   60.1655 H        49        0    0.0000
    301 C         131.7781   77.0906   59.7069 C.3      50        0    0.0000
    302 C         131.3121   77.2310   61.1602 C.3      50        0    0.0000
    303 H         131.8260   78.0775   59.2302 H        50        0    0.0000
    304 H         131.0526   76.4991   59.1348 H        50        0    0.0000
    305 H         131.2671   76.2444   61.6378 H        50        0    0.0000
    306 H         132.0363   77.8249   61.7317 H        50        0    0.0000
    307 C         129.9035   77.9102   61.2695 C.3      51        0    0.0000
    308 C         129.4432   78.0624   62.7234 C.3      51        0    0.0000
    309 H         129.9460   78.8928   60.7835 H        51        0    0.0000
    310 H         129.1775   77.3111   60.7059 H        51        0    0.0000
    311 H         129.3988   77.0796   63.2088 H        51        0    0.0000
    312 H         130.1703   78.6598   63.2875 H        51        0    0.0000
    313 C         128.0358   78.7441   62.8328 C.3      52        0    0.0000
    314 C         127.5720   78.8891   64.2864 C.3      52        0    0.0000
    315 H         128.0819   79.7294   62.3526 H        52        0    0.0000
    316 H         127.3100   78.1500   62.2638 H        52        0    0.0000
    317 H         127.5265   77.9038   64.7668 H        52        0    0.0000
    318 H         128.2976   79.4837   64.8552 H        52        0    0.0000
    319 C         126.1642   79.5700   64.3957 C.3      53        0    0.0000
    320 C         125.7007   79.7155   65.8493 C.3      53        0    0.0000
    321 H         126.2096   80.5551   63.9150 H        53        0    0.0000
    322 H         125.4386   78.9752   63.8272 H        53        0    0.0000
    323 H         125.6572   78.7307   66.3306 H        53        0    0.0000
    324 H         126.4253   80.3120   66.4173 H        53        0    0.0000
    325 C         124.2916   80.3940   65.9585 C.3      54        0    0.0000
    326 C         123.8307   80.5448   67.4124 C.3      54        0    0.0000
    327 H         124.3340   81.3770   65.4734 H        54        0    0.0000
    328 H         123.5662   79.7951   65.3940 H        54        0    0.0000
    329 H         123.7901   79.5619   67.8980 H        54        0    0.0000
    330 H         124.5553   81.1451   67.9764 H        54        0    0.0000
    331 C         122.4205   81.2209   67.5214 C.3      55        0    0.0000
    332 C         121.9607   81.3740   68.9754 C.3      55        0    0.0000
    333 H         122.4607   82.2030   67.0342 H        55        0    0.0000
    334 H         121.6956   80.6195   66.9589 H        55        0    0.0000
    335 H         121.9197   80.3917   69.4624 H        55        0    0.0000
    336 H         122.6861   81.9745   69.5382 H        55        0    0.0000
    337 C         120.5511   82.0513   69.0846 C.3      56        0    0.0000
    338 C         120.0897   82.2012   70.5384 C.3      56        0    0.0000
    339 H         120.5928   83.0346   68.5999 H        56        0    0.0000
    340 H         119.8262   81.4521   68.5197 H        56        0    0.0000
    341 H         120.0491   81.2180   71.0235 H        56        0    0.0000
    342 H         120.8141   82.8013   71.1030 H        56        0    0.0000
    343 C         118.6795   82.8771   70.6475 C.3      57        0    0.0000
    344 C         118.2174   83.0254   72.1013 C.3      57        0    0.0000
    345 H         118.7205   83.8608   70.1636 H        57        0    0.0000
    346 H         117.9554   82.2776   70.0819 H        57        0    0.0000
    347 H         118.1751   82.0415   72.5848 H        57        0    0.0000
    348 H         118.9421   83.6237   72.6672 H        57        0    0.0000
    349 C         116.8079   83.7029   72.2104 C.3      58        0    0.0000
    350 C         116.3461   83.8519   73.6642 C.3      58        0    0.0000
    351 H         116.8500   84.6865   71.7264 H        58        0    0.0000
    352 H         116.0831   83.1043   71.6449 H        58        0    0.0000
    353 H         116.2986   82.8677   74.1466 H        58        0    0.0000
    354 H         117.0738   84.4458   74.2311 H        58        0    0.0000
    355 C         114.9402   84.5367   73.7738 C.3      59        0    0.0000
    356 C         114.4758   84.6804   75.2273 C.3      59        0    0.0000
    357 H         114.9889   85.5227   73.2952 H        59        0    0.0000
    358 H         114.2134   83.9452   73.2034 H        59        0    0.0000
    359 H         114.4218   83.6939   75.7042 H        59        0    0.0000
    360 H         115.2053   85.2672   75.7990 H        59        0    0.0000
    361 C         113.0734   85.3722   75.3373 C.3      60        0    0.0000
    362 C         112.6067   85.5112   76.7905 C.3      60        0    0.0000
    363 H         113.1283   86.3602   74.8637 H        60        0    0.0000
    364 H         112.3446   84.7874   74.7625 H        60        0    0.0000
    365 H         112.5571   84.5237   77.2658 H        60        0    0.0000
    366 H         113.3327   86.1008   77.3640 H        60        0    0.0000
    367 C         111.2007   86.1959   76.9000 C.3      61        0    0.0000
    368 C         110.7348   86.3367   78.3534 C.3      61        0    0.0000
    369 H         111.2499   87.1828   76.4235 H        61        0    0.0000
    370 H         110.4744   85.6055   76.3277 H        61        0    0.0000
    371 H         110.6134   85.3453   78.8072 H        61        0    0.0000
    372 H         111.4962   86.8620   78.9432 H        61        0    0.0000
    373 C         109.3792   87.1152   78.4699 C.3      62        0    0.0000
    374 C         108.9233   87.2732   79.9247 C.3      62        0    0.0000
    375 H         109.4963   88.1011   78.0033 H        62        0    0.0000
    376 H         108.6143   86.5819   77.8919 H        62        0    0.0000
    377 H         108.8408   88.3370   80.1796 H        62        0    0.0000
    378 H         107.9240   86.8396   80.0549 H        62        0    0.0000
    379 C         109.9074   86.5866   80.9335 C.3      63        0    0.0000
    380 C         109.5395   86.8772   82.3927 C.3      63        0    0.0000
    381 H         109.9015   85.5047   80.7524 H        63        0    0.0000
    382 H         110.9267   86.9353   80.7260 H        63        0    0.0000
    383 H         109.5328   87.9597   82.5706 H        63        0    0.0000
    384 H         108.5250   86.5171   82.6037 H        63        0    0.0000
    385 C         110.5341   86.2056   83.4012 C.3      64        0    0.0000
    386 C         110.1593   86.4862   84.8606 C.3      64        0    0.0000
    387 H         110.5473   85.1241   83.2176 H        64        0    0.0000
    388 H         111.5474   86.5724   83.1959 H        64        0    0.0000
    389 H         110.2009   87.5644   85.0591 H        64        0    0.0000
    390 H         109.1260   86.1706   85.0510 H        64        0    0.0000
    391 C         111.1066   85.7498   85.8695 C.3      65        0    0.0000
    392 C         110.7337   86.0329   87.3289 C.3      65        0    0.0000
    393 H         111.0631   84.6714   85.6725 H        65        0    0.0000
    394 H         112.1401   86.0637   85.6776 H        65        0    0.0000
    395 H         109.8005   85.5163   87.5857 H        65        0    0.0000
    396 H         111.5074   85.6371   87.9984 H        65        0    0.0000
    397 C         110.5572   87.5649   87.6105 C.3      66        0    0.0000
    398 C         110.1254   87.8441   89.0543 C.3      66        0    0.0000
    399 H         111.5043   88.0753   87.3958 H        66        0    0.0000
    400 H         109.8154   87.9699   86.9110 H        66        0    0.0000
    401 H         110.8192   88.5521   89.5242 H        66        0    0.0000
    402 H         109.1359   88.3178   89.0661 H        66        0    0.0000
    403 C         110.0711   86.5390   89.9211 C.3      67        0    0.0000
    404 C         109.9666   86.8412   91.4200 C.3      67        0    0.0000
    405 H         109.2136   85.9356   89.5984 H        67        0    0.0000
    406 H         110.9696   85.9429   89.7193 H        67        0    0.0000
    407 H         110.6611   87.6462   91.6908 H        67        0    0.0000
    408 H         108.9586   87.2002   91.6621 H        67        0    0.0000
    409 C         110.2810   85.5845   92.3028 C.3      68        0    0.0000
    410 C         110.1831   85.8884   93.8018 C.3      68        0    0.0000
    411 H         109.5833   84.7811   92.0355 H        68        0    0.0000
    412 H         111.2871   85.2226   92.0572 H        68        0    0.0000
    413 H         109.1333   86.0227   94.0907 H        68        0    0.0000
    414 H         110.5637   85.0396   94.3834 H        68        0    0.0000
    415 C         110.9854   87.1746   94.2009 C.3      69        0    0.0000
    416 C         110.8345   87.5155   95.6875 C.3      69        0    0.0000
    417 H         112.0437   87.0215   93.9556 H        69        0    0.0000
    418 H         110.6376   88.0135   93.5854 H        69        0    0.0000
    419 H         111.8229   87.6107   96.1538 H        69        0    0.0000
    420 H         110.3372   88.4866   95.8022 H        69        0    0.0000
    421 C         110.0113   86.4313   96.4650 C.3      70        0    0.0000
    422 C         110.0335   86.6612   97.9802 C.3      70        0    0.0000
    423 H         108.9775   86.4419   96.0981 H        70        0    0.0000
    424 H         110.4193   85.4408   96.2288 H        70        0    0.0000
    425 H         110.9981   87.0880   98.2818 H        70        0    0.0000
    426 H         109.2643   87.3912   98.2612 H        70        0    0.0000
    427 C         109.7926   85.3380   98.7854 C.3      71        0    0.0000
    428 C         109.8197   85.5670  100.3006 C.3      71        0    0.0000
    429 H         108.8263   84.9131   98.4865 H        71        0    0.0000
    430 H         110.5596   84.6067   98.5017 H        71        0    0.0000
    431 H         108.9185   86.1075  100.6156 H        71        0    0.0000
    432 H         109.8098   84.6044  100.8268 H        71        0    0.0000
    433 C         111.0810   86.3789  100.7562 C.3      72        0    0.0000
    434 C         110.9856   86.8281  102.2185 C.3      72        0    0.0000
    435 H         111.9731   85.7572  100.6111 H        72        0    0.0000
    436 H         111.1952   87.2516  100.1013 H        72        0    0.0000
    437 H         111.9478   86.6747  102.7226 H        72        0    0.0000
    438 H         110.7714   87.9028  102.2686 H        72        0    0.0000
    439 C         109.8733   86.0538  103.0064 C.3      73        0    0.0000
    440 C         109.8562   86.4174  104.4952 C.3      73        0    0.0000
    441 H         108.8991   86.2766  102.5536 H        73        0    0.0000
    442 H         110.0384   84.9762  102.8842 H        73        0    0.0000
    443 H         110.3518   87.3835  104.6522 H        73        0    0.0000
    444 H         108.8220   86.5338  104.8422 H        73        0    0.0000
    445 C         110.5670   85.3354  105.3792 C.3      74        0    0.0000
    446 C         110.5056   85.6737  106.8728 C.3      74        0    0.0000
    447 H         110.0956   84.3622  105.1942 H        74        0    0.0000
    448 H         111.6117   85.2457  105.0565 H        74        0    0.0000
    449 H         110.8954   84.8362  107.4645 H        74        0    0.0000
    450 H         111.1461   86.5376  107.0895 H        74        0    0.0000
    451 C         109.0470   85.9938  107.3499 C.3      75        0    0.0000
    452 C         109.0045   86.4786  108.8032 C.3      75        0    0.0000
    453 H         108.6170   86.7546  106.6868 H        75        0    0.0000
    454 H         108.4319   85.0925  107.2358 H        75        0    0.0000
    455 H         108.7475   87.5446  108.8368 H        75        0    0.0000
    456 H         108.2183   85.9476  109.3541 H        75        0    0.0000
    457 C         110.3710   86.2648  109.5411 C.3      76        0    0.0000
    458 C         110.2645   86.5251  111.0477 C.3      76        0    0.0000
    459 H         110.7139   85.2386  109.3599 H        76        0    0.0000
    460 H         111.1209   86.9307  109.0963 H        76        0    0.0000
    461 H         111.2630   86.6851  111.4733 H        76        0    0.0000
    462 H         109.6930   87.4434  111.2313 H        76        0    0.0000
    463 C         109.5751   85.3402  111.8080 C.3      77        0    0.0000
    464 C         109.5210   85.5745  113.3217 C.3      77        0    0.0000
    465 H         108.5608   85.2081  111.4114 H        77        0    0.0000
    466 H         110.1217   84.4144  111.5900 H        77        0    0.0000
    467 H         108.8143   86.3812  113.5525 H        77        0    0.0000
    468 H         109.1492   84.6754  113.8285 H        77        0    0.0000
    469 C         110.9234   85.9460  113.9158 C.3      78        0    0.0000
    470 C         110.8304   86.4243  115.3689 C.3      78        0    0.0000
    471 H         111.5790   85.0688  113.8498 H        78        0    0.0000
    472 H         111.3766   86.7258  113.2914 H        78        0    0.0000
    473 H         111.6607   86.0110  115.9549 H        78        0    0.0000
    474 H         110.9270   87.5163  115.4124 H        78        0    0.0000
    475 C         109.4786   86.0093  116.0457 C.3      79        0    0.0000
    476 C         109.4506   86.3447  117.5409 C.3      79        0    0.0000
    477 H         108.6544   86.5182  115.5305 H        79        0    0.0000
    478 H         109.3253   84.9330  115.8986 H        79        0    0.0000
    479 H         108.5110   86.8507  117.7954 H        79        0    0.0000
    480 H         109.4823   85.4223  118.1340 H        79        0    0.0000
    481 C         110.6493   87.2607  117.9669 C.3      80        0    0.0000
    482 C         110.7135   87.4650  119.4845 C.3      80        0    0.0000
    483 H         111.5832   86.8106  117.6080 H        80        0    0.0000
    484 H         110.5515   88.2292  117.4608 H        80        0    0.0000
    485 H         111.5860   86.9437  119.8976 H        80        0    0.0000
    486 H         110.8440   88.5295  119.7156 H        80        0    0.0000
    487 C         109.4243   86.9450  120.2091 C.3      81        0    0.0000
    488 C         109.5537   86.9999  121.7353 C.3      81        0    0.0000
    489 H         108.5677   87.5474  119.8823 H        81        0    0.0000
    490 H         109.2275   85.9156  119.8850 H        81        0    0.0000
    491 H         109.6083   88.0429  122.0709 H        81        0    0.0000
    492 H         108.6627   86.5643  122.2042 H        81        0    0.0000
    493 C         110.8213   86.2358  122.2519 C.3      82        0    0.0000
    494 C         110.4738   85.1836  123.3108 C.3      82        0    0.0000
    495 H         111.3197   85.7600  121.3983 H        82        0    0.0000
    496 H         111.5299   86.9647  122.6643 H        82        0    0.0000
    497 H         109.9753   85.6593  124.1644 H        82        0    0.0000
    498 H         109.7651   84.4547  122.8984 H        82        0    0.0000
    499 H         111.3551   84.6523  123.6700 H        82        0    0.0000
    500 H         189.2798   53.1887  -40.4349 H         0        0    0.0000
@<TRIPOS>BOND
     1     1     2      1
     2     1     3      1
     3     1     4      1
     4     1   500      H
     5     2     5      1
     6     2     6      1
     7     2     7      1
     8     7     8      1
     9     7     9      1
    10     7    10      1
    11     8    11      1
    12     8    12      1
    13     8    13      1
    14    13    14      1
    15    13    15      1
    16    13    16      1
    17    14    17      1
    18    14    18      1
    19    14    19      1
    20    19    20      1
    21    19    21      1
    22    19    22      1
    23    20    23      1
    24    20    24      1
    25    20    25      1
    26    25    26      1
    27    25    27      1
    28    25    28      1
    29    26    29      1
    30    26    30      1
    31    26    31      1
    32    31    32      1
    33    31    33      1
    34    31    34      1
    35    32    35      1
    36    32    36      1
    37    32    37      1
    38    37    38      1
    39    37    39      1
    40    37    40      1
    41    38    41      1
    42    38    42      1
    43    38    43      1
    44    43    44      1
    45    43    45      1
    46    43    46      1
    47    44    47      1
    48    44    48      1
    49    44    49      1
    50    49    50      1
    51    49    51      1
    52    49    52      1
    53    50    53      1
    54    50    54      1
    55    50    55      1
    56    55    56      1
    57    55    57      1
    58    55    58      1
    59    56    59      1
    60    56    60      1
    61    56    61      1
    62    61    62      1
    63    61    63      1
    64    61    64      1
    65    62    65      1
    66    62    66      1
    67    62    67      1
    68    67    68      1
    69    67    69      1
    70    67    70      1
    71    68    71      1
    72    68    72      1
    73    68    73      1
    74    73    74      1
    75    73    75      1
    76    73    76      1
    77    74    77      1
    78    74    78      1
    79    74    79      1
    80    79    80      1
    81    79    81      1
    82    79    82      1
    83    80    83      1
    84    80    84      1
    85    80    85      1
    86    85    86      1
    87    85    87      1
    88    85    88      1
    89    86    89      1
    90    86    90      1
    91    86    91      1
    92    91    92      1
    93    91    93      1
    94    91    94      1
    95    92    95      1
    96    92    96      1
    97    92    97      1
    98    97    98      1
    99    97    99      1
   100    97   100      1
   101    98   101      1
   102    98   102      1
   103    98   103      1
   104   103   104      1
   105   103   105      1
   106   103   106      1
   107   104   107      1
   108   104   108      1
   109   104   109      1
   110   109   110      1
   111   109   111      1
   112   109   112      1
   113   110   113      1
   114   110   114      1
   115   110   115      1
   116   115   116      1
   117   115   117      1
   118   115   118      1
   119   116   119      1
   120   116   120      1
   121   116   121      1
   122   121   122      1
   123   121   123      1
   124   121   124      1
   125   122   125      1
   126   122   126      1
   127   122   127      1
   128   127   128      1
   129   127   129      1
   130   127   130      1
   131   128   131      1
   132   128   132      1
   133   128   133      1
   134   133   134      1
   135   133   135      1
   136   133   136      1
   137   134   137      1
   138   134   138      1
   139   134   139      1
   140   139   140      1
   141   139   141      1
   142   139   142      1
   143   140   143      1
   144   140   144      1
   145   140   145      1
   146   145   146      1
   147   145   147      1
   148   145   148      1
   149   146   149      1
   150   146   150      1
   151   146   151      1
   152   151   152      1
   153   151   153      1
   154   151   154      1
   155   152   155      1
   156   152   156      1
   157   152   157      1
   158   157   158      1
   159   157   159      1
   160   157   160      1
   161   158   161      1
   162   158   162      1
   163   158   163      1
   164   163   164      1
   165   163   165      1
   166   163   166      1
   167   164   167      1
   168   164   168      1
   169   164   169      1
   170   169   170      1
   171   169   171      1
   172   169   172      1
   173   170   173      1
   174   170   174      1
   175   170   175      1
   176   175   176      1
   177   175   177      1
   178   175   178      1
   179   176   179      1
   180   176   180      1
   181   176   181      1
   182   181   182      1
   183   181   183      1
   184   181   184      1
   185   182   185      1
   186   182   186      1
   187   182   187      1
   188   187   188      1
   189   187   189      1
   190   187   190      1
   191   188   191      1
   192   188   192      1
   193   188   193      1
   194   193   194      1
   195   193   195      1
   196   193   196      1
   197   194   197      1
   198   194   198      1
   199   194   199      1
   200   199   200      1
   201   199   201      1
   202   199   202      1
   203   200   203      1
   204   200   204      1
   205   200   205      1
   206   205   206      1
   207   205   207      1
   208   205   208      1
   209   206   209      1
   210   206   210      1
   211   206   211      1
   212   211   212      1
   213   211   213      1
   214   211   214      1
   215   212   215      1
   216   212   216      1
   217   212   217      1
   218   217   218      1
   219   217   219      1
   220   217   220      1
   221   218   221      1
   222   218   222      1
   223   218   223      1
   224   223   224      1
   225   223   225      1
   226   223   226      1
   227   224   227      1
   228   224   228      1
   229   224   229      1
   230   229   230      1
   231   229   231      1
   232   229   232      1
   233   230   233      1
   234   230   234      1
   235   230   235      1
   236   235   236      1
   237   235   237      1
   238   235   238      1
   239   236   239      1
   240   236   240      1
   241   236   241      1
   242   241   242      1
   243   241   243      1
   244   241   244      1
   245   242   245      1
   246   242   246      1
   247   242   247      1
   248   247   248      1
   249   247   249      1
   250   247   250      1
   251   248   251      1
   252   248   252      1
   253   248   253      1
   254   253   254      1
   255   253   255      1
   256   253   256      1
   257   254   257      1
   258   254   258      1
   259   254   259      1
   260   259   260      1
   261   259   261      1
   262   259   262      1
   263   260   263      1
   264   260   264      1
   265   260   265      1
   266   265   266      1
   267   265   267      1
   268   265   268      1
   269   266   269      1
   270   266   270      1
   271   266   271      1
   272   271   272      1
   273   271   273      1
   274   271   274      1
   275   272   275      1
   276   272   276      1
   277   272   277      1
   278   277   278      1
   279   277   279      1
   280   277   280      1
   281   278   281      1
   282   278   282      1
   283   278   283      1
   284   283   284      1
   285   283   285      1
   286   283   286      1
   287   284   287      1
   288   284   288      1
   289   284   289      1
   290   289   290      1
   291   289   291      1
   292   289   292      1
   293   290   293      1
   294   290   294      1
   295   290   295      1
   296   295   296      1
   297   295   297      1
   298   295   298      1
   299   296   299      1
   300   296   300      1
   301   296   301      1
   302   301   302      1
   303   301   303      1
   304   301   304      1
   305   302   305      1
   306   302   306      1
   307   302   307      1
   308   307   308      1
   309   307   309      1
   310   307   310      1
   311   308   311      1
   312   308   312      1
   313   308   313      1
   314   313   314      1
   315   313   315      1
   316   313   316      1
   317   314   317      1
   318   314   318      1
   319   314   319      1
   320   319   320      1
   321   319   321      1
   322   319   322      1
   323   320   323      1
   324   320   324      1
   325   320   325      1
   326   325   326      1
   327   325   327      1
   328   325   328      1
   329   326   329      1
   330   326   330      1
   331   326   331      1
   332   331   332      1
   333   331   333      1
   334   331   334      1
   335   332   335      1
   336   332   336      1
   337   332   337      1
   338   337   338      1
   339   337   339      1
   340   337   340      1
   341   338   341      1
   342   338   342      1
   343   338   343      1
   344   343   344      1
   345   343   345      1
   346   343   346      1
   347   344   347      1
   348   344   348      1
   349   344   349      1
   350   349   350      1
   351   349   351      1
   352   349   352      1
   353   350   353      1
   354   350   354      1
   355   350   355      1
   356   355   356      1
   357   355   357      1
   358   355   358      1
   359   356   359      1
   360   356   360      1
   361   356   361      1
   362   361   362      1
   363   361   363      1
   364   361   364      1
   365   362   365      1
   366   362   366      1
   367   362   367      1
   368   367   368      1
   369   367   369      1
   370   367   370      1
   371   368   371      1
   372   368   372      1
   373   368   373      1
   374   373   374      1
   375   373   375      1
   376   373   376      1
   377   374   377      1
   378   374   378      1
   379   374   379      1
   380   379   380      1
   381   379   381      1
   382   379   382      1
   383   380   383      1
   384   380   384      1
   385   380   385      1
   386   385   386      1
   387   385   387      1
   388   385   388      1
   389   386   389      1
   390   386   390      1
   391   386   391      1
   392   391   392      1
   393   391   393      1
   394   391   394      1
   395   392   395      1
   396   392   396      1
   397   392   397      1
   398   397   398      1
   399   397   399      1
   400   397   400      1
   401   398   401      1
   402   398   402      1
   403   398   403      1
   404   403   404      1
   405   403   405      1
   406   403   406      1
   407   404   407      1
   408   404   408      1
   409   404   409      1
   410   409   410      1
   411   409   411      1
   412   409   412      1
   413   410   413      1
   414   410   414      1
   415   410   415      1
   416   415   416      1
   417   415   417      1
   418   415   418      1
   419   416   419      1
   420   416   420      1
   421   416   421      1
   422   421   422      1
   423   421   423      1
   424   421   424      1
   425   422   425      1
   426   422   426      1
   427   422   427      1
   428   427   428      1
   429   427   429      1
   430   427   430      1
   431   428   431      1
   432   428   432      1
   433   428   433      1
   434   433   434      1
   435   433   435      1
   436   433   436      1
   437   434   437      1
   438   434   438      1
   439   434   439      1
   440   439   440      1
   441   439   441      1
   442   439   442      1
   443   440   443      1
   444   440   444      1
   445   440   445      1
   446   445   446      1
   447   445   447      1
   448   445   448      1
   449   446   449      1
   450   446   450      1
   451   446   451      1
   452   451   452      1
   453   451   453      1
   454   451   454      1
   455   452   455      1
   456   452   456      1
   457   452   457      1
   458   457   458      1
   459   457   459      1
   460   457   460      1
   461   458   461      1
   462   458   462      1
   463   458   463      1
   464   463   464      1
   465   463   465      1
   466   463   466      1
   467   464   467      1
   468   464   468      1
   469   464   469      1
   470   469   470      1
   471   469   471      1
   472   469   472      1
   473   470   473      1
   474   470   474      1
   475   470   475      1
   476   475   476      1
   477   475   477      1
   478   475   478      1
   479   476   479      1
   480   476   480      1
   481   476   481      1
   482   481   482      1
   483   481   483      1
   484   481   484      1
   485   482   485      1
   486   482   486      1
   487   482   487      1
   488   487   488      1
   489   487   489      1
   490   487   490      1
   491   488   491      1
   492   488   492      1
   493   488   493      1
   494   493   494      1
   495   493   495      1
   496   493   496      1
   497   494   497      1
   498   494   498      1
   499   494   499      H
