###
### Created by PolyChef-cpp17 on Thu Feb 27 19:40:29 2025
###

@<TRIPOS>MOLECULE
NO_INFO
302 301 1 0 0
SMALL
USER_CHARGES


@<TRIPOS>ATOM
      1 C          99.2798  105.1487  120.6551 C.3       0        0    0.0000
      2 C          98.4513  103.9975  120.0742 C.3       0        0    0.0000
      3 H          98.8875  106.1102  120.3014 H         0        0    0.0000
      4 H         100.3162  105.0821  120.3014 H         0        0    0.0000
      5 H          98.4077  103.1671  120.7897 H         0        0    0.0000
      6 H          97.4174  104.3246  119.9079 H         0        0    0.0000
      7 C          99.0376  103.4677  118.7203 C.3       1        0    0.0000
      8 C          99.6340  104.5918  117.8661 C.3       1        0    0.0000
      9 H          99.8041  102.7135  118.9380 H         1        0    0.0000
     10 H          98.2409  102.9562  118.1660 H         1        0    0.0000
     11 H          98.9410  105.4412  117.8252 H         1        0    0.0000
     12 H         100.5594  104.9621  118.3245 H         1        0    0.0000
     13 C          99.9469  104.1240  116.4030 C.3       2        0    0.0000
     14 C          99.8809  105.2787  115.3974 C.3       2        0    0.0000
     15 H         100.9432  103.6651  116.3839 H         2        0    0.0000
     16 H          99.2333  103.3395  116.1224 H         2        0    0.0000
     17 H          98.9589  105.8544  115.5456 H         2        0    0.0000
     18 H         100.7151  105.9714  115.5646 H         2        0    0.0000
     19 C          99.9304  104.7773  113.9129 C.3       3        0    0.0000
     20 C          99.8365  105.9299  112.9070 C.3       3        0    0.0000
     21 H         100.8621  104.2188  113.7592 H         3        0    0.0000
     22 H          99.1083  104.0691  113.7513 H         3        0    0.0000
     23 H          98.9079  106.4922  113.0649 H         3        0    0.0000
     24 H         100.6623  106.6347  113.0645 H         3        0    0.0000
     25 C          99.8769  105.4277  111.4226 C.3       4        0    0.0000
     26 C          99.7973  106.5813  110.4167 C.3       4        0    0.0000
     27 H         100.8006  104.8565  111.2675 H         4        0    0.0000
     28 H          99.0449  104.7307  111.2623 H         4        0    0.0000
     29 H          98.8732  107.1521  110.5714 H         4        0    0.0000
     30 H         100.6289  107.2786  110.5774 H         4        0    0.0000
     31 C          99.8386  106.0792  108.9323 C.3       5        0    0.0000
     32 C          98.7308  106.7037  108.0768 C.3       5        0    0.0000
     33 H         100.8214  106.3158  108.5061 H         5        0    0.0000
     34 H          99.7474  104.9859  108.9261 H         5        0    0.0000
     35 H          97.7830  106.7024  108.6293 H         5        0    0.0000
     36 H          98.9683  107.7528  107.8612 H         5        0    0.0000
     37 C          98.5266  105.9430  106.7214 C.3       6        0    0.0000
     38 C          98.7820  106.8419  105.5066 C.3       6        0    0.0000
     39 H          99.2000  105.0772  106.6969 H         6        0    0.0000
     40 H          97.5038  105.5476  106.6884 H         6        0    0.0000
     41 H          97.8481  107.3243  105.1927 H         6        0    0.0000
     42 H          99.4779  107.6468  105.7739 H         6        0    0.0000
     43 C          99.3726  106.0459  104.2921 C.3       7        0    0.0000
     44 C          98.7067  106.4307  102.9664 C.3       7        0    0.0000
     45 H         100.4524  106.2321  104.2387 H         7        0    0.0000
     46 H          99.2470  104.9721  104.4785 H         7        0    0.0000
     47 H          97.6158  106.4387  103.0818 H         7        0    0.0000
     48 H          99.0007  107.4478  102.6791 H         7        0    0.0000
     49 C          99.0847  105.4483  101.8046 C.3       8        0    0.0000
     50 C          98.8837  106.0789  100.4222 C.3       8        0    0.0000
     51 H         100.1301  105.1395  101.9287 H         8        0    0.0000
     52 H          98.4751  104.5409  101.8964 H         8        0    0.0000
     53 H          97.8215  106.3014  100.2611 H         8        0    0.0000
     54 H          99.4182  107.0351  100.3636 H         8        0    0.0000
     55 C          99.3859  105.1475   99.2656 C.3       9        0    0.0000
     56 C          99.0929  105.7328   97.8798 C.3       9        0    0.0000
     57 H         100.4643  104.9855   99.3852 H         9        0    0.0000
     58 H          98.9066  104.1661   99.3685 H         9        0    0.0000
     59 H          98.0173  105.9189   97.7698 H         9        0    0.0000
     60 H          99.5935  106.7025   97.7675 H         9        0    0.0000
     61 C          99.5626  104.7848   96.7231 C.3      10        0    0.0000
     62 C          99.2780  105.3742   95.3372 C.3      10        0    0.0000
     63 H         100.6367  104.5932   96.8370 H        10        0    0.0000
     64 H          99.0568  103.8173   96.8314 H        10        0    0.0000
     65 H          98.2037  105.5650   95.2230 H        10        0    0.0000
     66 H          99.7831  106.3420   95.2291 H        10        0    0.0000
     67 C          99.7486  104.4266   94.1805 C.3      11        0    0.0000
     68 C          99.4583  105.0133   92.7946 C.3      11        0    0.0000
     69 H         100.8238  104.2394   94.2921 H        11        0    0.0000
     70 H          99.2469  103.4573   94.2912 H        11        0    0.0000
     71 H          98.3829  105.1985   92.6822 H        11        0    0.0000
     72 H          99.9583  105.9836   92.6846 H        11        0    0.0000
     73 C          99.9317  104.0670   91.6379 C.3      12        0    0.0000
     74 C          99.6361  104.6510   90.2520 C.3      12        0    0.0000
     75 H         101.0080  103.8853   91.7477 H        12        0    0.0000
     76 H          99.4350  103.0953   91.7503 H        12        0    0.0000
     77 H          98.5599  104.8341   90.1427 H        12        0    0.0000
     78 H         100.1339  105.6220   90.1390 H        12        0    0.0000
     79 C         100.1075  103.7038   89.0953 C.3      13        0    0.0000
     80 C          99.8159  104.2898   87.7094 C.3      13        0    0.0000
     81 H         101.1830  103.5180   89.2065 H        13        0    0.0000
     82 H          99.6071  102.7338   89.2064 H        13        0    0.0000
     83 H          98.7400  104.4725   87.5970 H        13        0    0.0000
     84 H         100.3136  105.2613   87.5995 H        13        0    0.0000
     85 C         100.2915  103.3447   86.5527 C.3      14        0    0.0000
     86 C          99.9953  103.9284   85.1668 C.3      14        0    0.0000
     87 H         101.3682  103.1650   86.6629 H        14        0    0.0000
     88 H          99.7968  102.3720   86.6648 H        14        0    0.0000
     89 H          98.9189  104.1097   85.0573 H        14        0    0.0000
     90 H         100.4916  104.9002   85.0540 H        14        0    0.0000
     91 C         100.4686  102.9821   84.0101 C.3      15        0    0.0000
     92 C         100.1734  103.5663   82.6242 C.3      15        0    0.0000
     93 H         101.5448  102.8000   84.1201 H        15        0    0.0000
     94 H          99.9717  102.0105   84.1224 H        15        0    0.0000
     95 H          99.0898  103.6467   82.4729 H        15        0    0.0000
     96 H         100.5781  104.5833   82.5507 H        15        0    0.0000
     97 C         100.7813  102.6959   81.4708 C.3      16        0    0.0000
     98 C         100.4834  103.2784   80.0848 C.3      16        0    0.0000
     99 H         101.8653  102.6174   81.6208 H        16        0    0.0000
    100 H         100.3785  101.6783   81.5457 H        16        0    0.0000
    101 H         101.4211  103.4821   79.5529 H        16        0    0.0000
    102 H          99.9308  102.5482   79.4807 H        16        0    0.0000
    103 C          99.6493  104.6033   80.1639 C.3      17        0    0.0000
    104 C          99.6131  105.3478   78.8247 C.3      17        0    0.0000
    105 H          98.6294  104.3604   80.4869 H        17        0    0.0000
    106 H         100.0808  105.2470   80.9405 H        17        0    0.0000
    107 H         100.6302  105.4598   78.4290 H        17        0    0.0000
    108 H          99.0499  104.7648   78.0854 H        17        0    0.0000
    109 C          98.9610  106.7677   78.9517 C.3      18        0    0.0000
    110 C          98.3721  107.2572   77.6240 C.3      18        0    0.0000
    111 H          98.1781  106.7298   79.7193 H        18        0    0.0000
    112 H          99.7197  107.4744   79.3100 H        18        0    0.0000
    113 H          99.1790  107.5194   76.9286 H        18        0    0.0000
    114 H          97.7956  106.4537   77.1492 H        18        0    0.0000
    115 C          97.4412  108.5046   77.8111 C.3      19        0    0.0000
    116 C          96.2134  108.4556   76.8950 C.3      19        0    0.0000
    117 H          97.1256  108.5561   78.8605 H        19        0    0.0000
    118 H          98.0230  109.4131   77.6121 H        19        0    0.0000
    119 H          96.5041  108.6907   75.8636 H        19        0    0.0000
    120 H          95.7947  107.4417   76.8810 H        19        0    0.0000
    121 C          95.0954  109.4577   77.3458 C.3      20        0    0.0000
    122 C          93.9214  109.4994   76.3614 C.3      20        0    0.0000
    123 H          94.7406  109.1668   78.3423 H        20        0    0.0000
    124 H          95.5365  110.4570   77.4478 H        20        0    0.0000
    125 H          94.2373  109.1173   75.3828 H        20        0    0.0000
    126 H          93.1145  108.8431   76.7103 H        20        0    0.0000
    127 C          93.3509  110.9480   76.1781 C.3      21        0    0.0000
    128 C          92.4172  111.0557   74.9675 C.3      21        0    0.0000
    129 H          92.8167  111.2360   77.0920 H        21        0    0.0000
    130 H          94.1894  111.6472   76.0698 H        21        0    0.0000
    131 H          91.6212  110.3041   75.0384 H        21        0    0.0000
    132 H          91.9248  112.0360   74.9582 H        21        0    0.0000
    133 C          93.1780  110.8595   73.6110 C.3      22        0    0.0000
    134 C          92.4080  111.4465   72.4230 C.3      22        0    0.0000
    135 H          94.1660  111.3301   73.6885 H        22        0    0.0000
    136 H          93.3511  109.7875   73.4545 H        22        0    0.0000
    137 H          91.5193  110.8384   72.2132 H        22        0    0.0000
    138 H          92.0497  112.4541   72.6677 H        22        0    0.0000
    139 C          93.2852  111.5234   71.1260 C.3      23        0    0.0000
    140 C          92.9676  112.7631   70.2826 C.3      23        0    0.0000
    141 H          94.3436  111.5258   71.4146 H        23        0    0.0000
    142 H          93.1220  110.6141   70.5344 H        23        0    0.0000
    143 H          91.9769  112.6613   69.8225 H        23        0    0.0000
    144 H          92.9278  113.6533   70.9226 H        23        0    0.0000
    145 C          94.0277  113.0003   69.1524 C.3      24        0    0.0000
    146 C          94.4200  114.4763   69.0245 C.3      24        0    0.0000
    147 H          94.9153  112.3924   69.3670 H        24        0    0.0000
    148 H          93.6186  112.6360   68.2019 H        24        0    0.0000
    149 H          94.5196  114.7488   67.9665 H        24        0    0.0000
    150 H          93.6295  115.1131   69.4407 H        24        0    0.0000
    151 C          95.7673  114.7987   69.7583 C.3      25        0    0.0000
    152 C          95.7608  116.1907   70.3996 C.3      25        0    0.0000
    153 H          95.9452  114.0329   70.5234 H        25        0    0.0000
    154 H          96.5902  114.7206   69.0370 H        25        0    0.0000
    155 H          96.1485  116.9331   69.6910 H        25        0    0.0000
    156 H          94.7328  116.4901   70.6384 H        25        0    0.0000
    157 C          96.6203  116.2454   71.7094 C.3      26        0    0.0000
    158 C          96.0854  117.2733   72.7126 C.3      26        0    0.0000
    159 H          96.6346  115.2475   72.1649 H        26        0    0.0000
    160 H          97.6571  116.4847   71.4424 H        26        0    0.0000
    161 H          96.1029  118.2764   72.2688 H        26        0    0.0000
    162 H          95.0379  117.0537   72.9538 H        26        0    0.0000
    163 C          96.9162  117.2942   74.0418 C.3      27        0    0.0000
    164 C          96.5082  118.4487   74.9637 C.3      27        0    0.0000
    165 H          96.7821  116.3354   74.5578 H        27        0    0.0000
    166 H          97.9816  117.3711   73.7917 H        27        0    0.0000
    167 H          97.0420  118.3737   75.9192 H        27        0    0.0000
    168 H          96.7970  119.4077   74.5160 H        27        0    0.0000
    169 C          94.9664  118.4669   75.2463 C.3      28        0    0.0000
    170 C          94.5484  119.6612   76.1111 C.3      28        0    0.0000
    171 H          94.4316  118.4904   74.2887 H        28        0    0.0000
    172 H          94.6864  117.5283   75.7405 H        28        0    0.0000
    173 H          95.2189  119.7534   76.9745 H        28        0    0.0000
    174 H          94.6429  120.5919   75.5381 H        28        0    0.0000
    175 C          93.0739  119.5334   76.6278 C.3      29        0    0.0000
    176 C          92.6789  120.6925   77.5495 C.3      29        0    0.0000
    177 H          92.3988  119.4928   75.7640 H        29        0    0.0000
    178 H          92.9662  118.5785   77.1570 H        29        0    0.0000
    179 H          93.4941  120.9103   78.2505 H        29        0    0.0000
    180 H          92.5183  121.6038   76.9601 H        29        0    0.0000
    181 C          91.3777  120.3841   78.3676 C.3      30        0    0.0000
    182 C          91.0891  121.4552   79.4253 C.3      30        0    0.0000
    183 H          90.5331  120.3051   77.6720 H        30        0    0.0000
    184 H          91.4850  119.4026   78.8457 H        30        0    0.0000
    185 H          92.0160  121.7325   79.9425 H        30        0    0.0000
    186 H          90.7118  122.3663   78.9447 H        30        0    0.0000
    187 C          90.0421  120.9737   80.4880 C.3      31        0    0.0000
    188 C          90.2165  121.6804   81.8368 C.3      31        0    0.0000
    189 H          89.0330  121.1535   80.0969 H        31        0    0.0000
    190 H          90.1416  119.8887   80.6161 H        31        0    0.0000
    191 H          91.2703  121.9447   81.9895 H        31        0    0.0000
    192 H          89.6515  122.6207   81.8447 H        31        0    0.0000
    193 C          89.7388  120.7938   83.0382 C.3      32        0    0.0000
    194 C          90.0596  121.4317   84.3944 C.3      32        0    0.0000
    195 H          88.6583  120.6272   82.9470 H        32        0    0.0000
    196 H          90.2168  119.8092   82.9631 H        32        0    0.0000
    197 H          91.1330  121.6471   84.4643 H        32        0    0.0000
    198 H          89.5386  122.3923   84.4909 H        32        0    0.0000
    199 C          89.6496  120.5116   85.5955 C.3      33        0    0.0000
    200 C          89.9592  121.1546   86.9519 C.3      33        0    0.0000
    201 H          88.5779  120.2889   85.5207 H        33        0    0.0000
    202 H          90.1774  119.5542   85.5038 H        33        0    0.0000
    203 H          91.0338  121.3595   87.0345 H        33        0    0.0000
    204 H          89.4468  122.1211   87.0357 H        33        0    0.0000
    205 C          89.5242  120.2462   88.1532 C.3      34        0    0.0000
    206 C          89.8327  120.8898   89.5095 C.3      34        0    0.0000
    207 H          88.4498  120.0406   88.0701 H        34        0    0.0000
    208 H          90.0372  119.2801   88.0698 H        34        0    0.0000
    209 H          90.9077  121.0920   89.5941 H        34        0    0.0000
    210 H          89.3227  121.8576   89.5914 H        34        0    0.0000
    211 C          89.3930  119.9837   90.7108 C.3      35        0    0.0000
    212 C          89.7015  120.6272   92.0671 C.3      35        0    0.0000
    213 H          88.3181  119.7813   90.6262 H        35        0    0.0000
    214 H          89.9031  119.0159   90.6289 H        35        0    0.0000
    215 H          90.7745  120.8416   92.1465 H        35        0    0.0000
    216 H          89.1808  121.5889   92.1543 H        35        0    0.0000
    217 C          89.2786  119.7131   93.2684 C.3      36        0    0.0000
    218 C          89.5848  120.3577   94.6247 C.3      36        0    0.0000
    219 H          88.2060  119.4972   93.1880 H        36        0    0.0000
    220 H          89.8007  118.7520   93.1822 H        36        0    0.0000
    221 H          90.6615  120.5473   94.7167 H        36        0    0.0000
    222 H          89.0859  121.3319   94.6994 H        36        0    0.0000
    223 C          89.1252  119.4613   95.8259 C.3      37        0    0.0000
    224 C          89.4358  120.1037   97.1823 C.3      37        0    0.0000
    225 H          88.0479  119.2747   95.7359 H        37        0    0.0000
    226 H          89.6213  118.4858   95.7492 H        37        0    0.0000
    227 H          88.7685  120.9569   97.3560 H        37        0    0.0000
    228 H          89.2469  119.3863   97.9904 H        37        0    0.0000
    229 C          90.9210  120.5958   97.2804 C.3      38        0    0.0000
    230 C          91.2193  121.2790   98.6195 C.3      38        0    0.0000
    231 H          91.5883  119.7364   97.1397 H        38        0    0.0000
    232 H          91.1197  121.2877   96.4526 H        38        0    0.0000
    233 H          92.0705  120.7904   99.1097 H        38        0    0.0000
    234 H          91.5092  122.3238   98.4525 H        38        0    0.0000
    235 C          89.9893  121.2450   99.5908 C.3      39        0    0.0000
    236 C          90.3838  121.5558  101.0388 C.3      39        0    0.0000
    237 H          89.2424  121.9684   99.2409 H        39        0    0.0000
    238 H          89.5202  120.2550   99.5329 H        39        0    0.0000
    239 H          91.4265  121.2640  101.2155 H        39        0    0.0000
    240 H          90.3236  122.6359  101.2215 H        39        0    0.0000
    241 C          89.4695  120.8163  102.0755 C.3      40        0    0.0000
    242 C          89.8621  121.1295  103.5235 C.3      40        0    0.0000
    243 H          88.4266  121.1063  101.8973 H        40        0    0.0000
    244 H          89.5315  119.7361  101.8942 H        40        0    0.0000
    245 H          90.9022  120.8310  103.7042 H        40        0    0.0000
    246 H          89.8090  122.2106  103.7022 H        40        0    0.0000
    247 C          88.9397  120.4001  104.5602 C.3      41        0    0.0000
    248 C          89.3350  120.7099  106.0082 C.3      41        0    0.0000
    249 H          87.9000  120.7011  104.3815 H        41        0    0.0000
    250 H          88.9902  119.3193  104.3794 H        41        0    0.0000
    251 H          88.5732  120.3241  106.6969 H        41        0    0.0000
    252 H          90.2735  120.2002  106.2591 H        41        0    0.0000
    253 C          89.5118  122.2470  106.2600 C.3      42        0    0.0000
    254 C          89.9174  122.5560  107.7053 C.3      42        0    0.0000
    255 H          90.2682  122.6343  105.5661 H        42        0    0.0000
    256 H          88.5709  122.7558  106.0163 H        42        0    0.0000
    257 H          90.9607  122.2621  107.8743 H        42        0    0.0000
    258 H          89.8606  123.6361  107.8893 H        42        0    0.0000
    259 C          89.0092  121.8175  108.7480 C.3      43        0    0.0000
    260 C          89.6664  121.7270  110.1297 C.3      43        0    0.0000
    261 H          88.0515  122.3476  108.8210 H        43        0    0.0000
    262 H          88.7846  120.8117  108.3717 H        43        0    0.0000
    263 H          90.6658  121.2830  110.0425 H        43        0    0.0000
    264 H          89.8035  122.7320  110.5475 H        43        0    0.0000
    265 C          88.8200  120.8728  111.1354 C.3      44        0    0.0000
    266 C          89.3983  120.9046  112.5544 C.3      44        0    0.0000
    267 H          87.7900  121.2503  111.1404 H        44        0    0.0000
    268 H          88.7749  119.8391  110.7706 H        44        0    0.0000
    269 H          89.0695  120.0204  113.1145 H        44        0    0.0000
    270 H          90.4938  120.8633  112.5152 H        44        0    0.0000
    271 C          88.9689  122.1901  113.3422 C.3      45        0    0.0000
    272 C          89.4271  122.1554  114.8044 C.3      45        0    0.0000
    273 H          89.3869  123.0700  112.8378 H        45        0    0.0000
    274 H          87.8773  122.2873  113.2923 H        45        0    0.0000
    275 H          90.5215  122.2103  114.8570 H        45        0    0.0000
    276 H          89.0416  123.0316  115.3403 H        45        0    0.0000
    277 C          88.9500  120.8593  115.5459 C.3      46        0    0.0000
    278 C          89.5047  120.7683  116.9718 C.3      46        0    0.0000
    279 H          87.8532  120.8477  115.5675 H        46        0    0.0000
    280 H          89.2628  119.9835  114.9640 H        46        0    0.0000
    281 H          88.9418  120.0232  117.5475 H        46        0    0.0000
    282 H          90.5470  120.4271  116.9489 H        46        0    0.0000
    283 C          89.4392  122.1424  117.7235 C.3      47        0    0.0000
    284 C          89.9279  122.0358  119.1722 C.3      47        0    0.0000
    285 H          90.0448  122.8746  117.1751 H        47        0    0.0000
    286 H          88.4054  122.5088  117.7012 H        47        0    0.0000
    287 H          91.0098  121.8552  119.1919 H        47        0    0.0000
    288 H          89.7572  122.9836  119.6975 H        47        0    0.0000
    289 C          89.2093  120.8857  119.9585 C.3      48        0    0.0000
    290 C          89.8584  120.6200  121.3213 C.3      48        0    0.0000
    291 H          88.1536  121.1536  120.0906 H        48        0    0.0000
    292 H          89.2290  119.9742  119.3483 H        48        0    0.0000
    293 H          89.7406  121.4959  121.9712 H        48        0    0.0000
    294 H          89.3527  119.7854  121.8225 H        48        0    0.0000
    295 C          91.3847  120.2847  121.1970 C.3      49        0    0.0000
    296 C          92.0562  120.1187  122.5647 C.3      49        0    0.0000
    297 H          91.4981  119.3660  120.6083 H        49        0    0.0000
    298 H          91.8775  121.0846  120.6306 H        49        0    0.0000
    299 H          91.9428  121.0375  123.1534 H        49        0    0.0000
    300 H          91.5634  119.3188  123.1311 H        49        0    0.0000
    301 H          93.1174  119.8856  122.4783 H        49        0    0.0000
    302 H          99.2798  105.1487  121.7450 H         0        0    0.0000
@<TRIPOS>BOND
     1     1     2      1
     2     1     3      1
     3     1     4      1
     4     1   302      H
     5     2     5      1
     6     2     6      1
     7     2     7      1
     8     7     8      1
     9     7     9      1
    10     7    10      1
    11     8    11      1
    12     8    12      1
    13     8    13      1
    14    13    14      1
    15    13    15      1
    16    13    16      1
    17    14    17      1
    18    14    18      1
    19    14    19      1
    20    19    20      1
    21    19    21      1
    22    19    22      1
    23    20    23      1
    24    20    24      1
    25    20    25      1
    26    25    26      1
    27    25    27      1
    28    25    28      1
    29    26    29      1
    30    26    30      1
    31    26    31      1
    32    31    32      1
    33    31    33      1
    34    31    34      1
    35    32    35      1
    36    32    36      1
    37    32    37      1
    38    37    38      1
    39    37    39      1
    40    37    40      1
    41    38    41      1
    42    38    42      1
    43    38    43      1
    44    43    44      1
    45    43    45      1
    46    43    46      1
    47    44    47      1
    48    44    48      1
    49    44    49      1
    50    49    50      1
    51    49    51      1
    52    49    52      1
    53    50    53      1
    54    50    54      1
    55    50    55      1
    56    55    56      1
    57    55    57      1
    58    55    58      1
    59    56    59      1
    60    56    60      1
    61    56    61      1
    62    61    62      1
    63    61    63      1
    64    61    64      1
    65    62    65      1
    66    62    66      1
    67    62    67      1
    68    67    68      1
    69    67    69      1
    70    67    70      1
    71    68    71      1
    72    68    72      1
    73    68    73      1
    74    73    74      1
    75    73    75      1
    76    73    76      1
    77    74    77      1
    78    74    78      1
    79    74    79      1
    80    79    80      1
    81    79    81      1
    82    79    82      1
    83    80    83      1
    84    80    84      1
    85    80    85      1
    86    85    86      1
    87    85    87      1
    88    85    88      1
    89    86    89      1
    90    86    90      1
    91    86    91      1
    92    91    92      1
    93    91    93      1
    94    91    94      1
    95    92    95      1
    96    92    96      1
    97    92    97      1
    98    97    98      1
    99    97    99      1
   100    97   100      1
   101    98   101      1
   102    98   102      1
   103    98   103      1
   104   103   104      1
   105   103   105      1
   106   103   106      1
   107   104   107      1
   108   104   108      1
   109   104   109      1
   110   109   110      1
   111   109   111      1
   112   109   112      1
   113   110   113      1
   114   110   114      1
   115   110   115      1
   116   115   116      1
   117   115   117      1
   118   115   118      1
   119   116   119      1
   120   116   120      1
   121   116   121      1
   122   121   122      1
   123   121   123      1
   124   121   124      1
   125   122   125      1
   126   122   126      1
   127   122   127      1
   128   127   128      1
   129   127   129      1
   130   127   130      1
   131   128   131      1
   132   128   132      1
   133   128   133      1
   134   133   134      1
   135   133   135      1
   136   133   136      1
   137   134   137      1
   138   134   138      1
   139   134   139      1
   140   139   140      1
   141   139   141      1
   142   139   142      1
   143   140   143      1
   144   140   144      1
   145   140   145      1
   146   145   146      1
   147   145   147      1
   148   145   148      1
   149   146   149      1
   150   146   150      1
   151   146   151      1
   152   151   152      1
   153   151   153      1
   154   151   154      1
   155   152   155      1
   156   152   156      1
   157   152   157      1
   158   157   158      1
   159   157   159      1
   160   157   160      1
   161   158   161      1
   162   158   162      1
   163   158   163      1
   164   163   164      1
   165   163   165      1
   166   163   166      1
   167   164   167      1
   168   164   168      1
   169   164   169      1
   170   169   170      1
   171   169   171      1
   172   169   172      1
   173   170   173      1
   174   170   174      1
   175   170   175      1
   176   175   176      1
   177   175   177      1
   178   175   178      1
   179   176   179      1
   180   176   180      1
   181   176   181      1
   182   181   182      1
   183   181   183      1
   184   181   184      1
   185   182   185      1
   186   182   186      1
   187   182   187      1
   188   187   188      1
   189   187   189      1
   190   187   190      1
   191   188   191      1
   192   188   192      1
   193   188   193      1
   194   193   194      1
   195   193   195      1
   196   193   196      1
   197   194   197      1
   198   194   198      1
   199   194   199      1
   200   199   200      1
   201   199   201      1
   202   199   202      1
   203   200   203      1
   204   200   204      1
   205   200   205      1
   206   205   206      1
   207   205   207      1
   208   205   208      1
   209   206   209      1
   210   206   210      1
   211   206   211      1
   212   211   212      1
   213   211   213      1
   214   211   214      1
   215   212   215      1
   216   212   216      1
   217   212   217      1
   218   217   218      1
   219   217   219      1
   220   217   220      1
   221   218   221      1
   222   218   222      1
   223   218   223      1
   224   223   224      1
   225   223   225      1
   226   223   226      1
   227   224   227      1
   228   224   228      1
   229   224   229      1
   230   229   230      1
   231   229   231      1
   232   229   232      1
   233   230   233      1
   234   230   234      1
   235   230   235      1
   236   235   236      1
   237   235   237      1
   238   235   238      1
   239   236   239      1
   240   236   240      1
   241   236   241      1
   242   241   242      1
   243   241   243      1
   244   241   244      1
   245   242   245      1
   246   242   246      1
   247   242   247      1
   248   247   248      1
   249   247   249      1
   250   247   250      1
   251   248   251      1
   252   248   252      1
   253   248   253      1
   254   253   254      1
   255   253   255      1
   256   253   256      1
   257   254   257      1
   258   254   258      1
   259   254   259      1
   260   259   260      1
   261   259   261      1
   262   259   262      1
   263   260   263      1
   264   260   264      1
   265   260   265      1
   266   265   266      1
   267   265   267      1
   268   265   268      1
   269   266   269      1
   270   266   270      1
   271   266   271      1
   272   271   272      1
   273   271   273      1
   274   271   274      1
   275   272   275      1
   276   272   276      1
   277   272   277      1
   278   277   278      1
   279   277   279      1
   280   277   280      1
   281   278   281      1
   282   278   282      1
   283   278   283      1
   284   283   284      1
   285   283   285      1
   286   283   286      1
   287   284   287      1
   288   284   288      1
   289   284   289      1
   290   289   290      1
   291   289   291      1
   292   289   292      1
   293   290   293      1
   294   290   294      1
   295   290   295      1
   296   295   296      1
   297   295   297      1
   298   295   298      1
   299   296   299      1
   300   296   300      1
   301   296   301      H
