###
### Created by PolyChef-cpp17 on Thu Feb 27 19:40:30 2025
###

@<TRIPOS>MOLECULE
NO_INFO
452 451 1 0 0
SMALL
USER_CHARGES


@<TRIPOS>ATOM
      1 C          49.2798  122.4687  -39.3449 C.3       0        0    0.0000
      2 C          47.8706  122.3082  -38.7641 C.3       0        0    0.0000
      3 H          49.9271  121.6566  -38.9913 H         0        0    0.0000
      4 H          49.7280  123.4055  -38.9913 H         0        0    0.0000
      5 H          47.3720  123.2840  -38.7116 H         0        0    0.0000
      6 H          47.2612  121.6782  -39.4239 H         0        0    0.0000
      7 C          47.8874  121.6716  -37.3316 C.3       1        0    0.0000
      8 C          49.1653  122.0149  -36.5584 C.3       1        0    0.0000
      9 H          47.0073  122.0224  -36.7785 H         1        0    0.0000
     10 H          47.7863  120.5834  -37.4271 H         1        0    0.0000
     11 H          50.0455  121.8385  -37.1891 H         1        0    0.0000
     12 H          49.1727  123.0807  -36.2982 H         1        0    0.0000
     13 C          49.3087  121.1729  -35.2439 C.3       2        0    0.0000
     14 C          50.2055  121.8605  -34.2085 C.3       2        0    0.0000
     15 H          48.3103  121.0022  -34.8226 H         2        0    0.0000
     16 H          49.7160  120.1865  -35.4985 H         2        0    0.0000
     17 H          51.2602  121.7405  -34.4856 H         2        0    0.0000
     18 H          50.0043  122.9388  -34.1936 H         2        0    0.0000
     19 C          49.9939  121.2870  -32.7650 C.3       3        0    0.0000
     20 C          50.6182  122.1807  -31.6877 C.3       3        0    0.0000
     21 H          48.9178  121.1747  -32.5834 H         3        0    0.0000
     22 H          50.4282  120.2807  -32.7171 H         3        0    0.0000
     23 H          51.7072  122.2179  -31.8144 H         3        0    0.0000
     24 H          50.2532  123.2097  -31.7946 H         3        0    0.0000
     25 C          50.2951  121.6781  -30.2383 C.3       4        0    0.0000
     26 C          50.8923  122.5898  -29.1608 C.3       4        0    0.0000
     27 H          49.2061  121.6184  -30.1193 H         4        0    0.0000
     28 H          50.6809  120.6576  -30.1237 H         4        0    0.0000
     29 H          51.9818  122.6453  -29.2765 H         4        0    0.0000
     30 H          50.5106  123.6116  -29.2787 H         4        0    0.0000
     31 C          50.5629  122.0914  -27.7115 C.3       5        0    0.0000
     32 C          51.1591  123.0038  -26.6339 C.3       5        0    0.0000
     33 H          49.4734  122.0351  -27.5960 H         5        0    0.0000
     34 H          50.9454  121.0700  -27.5933 H         5        0    0.0000
     35 H          52.2487  123.0598  -26.7492 H         5        0    0.0000
     36 H          50.7769  124.0253  -26.7523 H         5        0    0.0000
     37 C          50.8293  122.5056  -25.1846 C.3       6        0    0.0000
     38 C          51.4424  123.4068  -24.1071 C.3       6        0    0.0000
     39 H          49.7396  122.4637  -25.0645 H         6        0    0.0000
     40 H          51.1985  121.4788  -25.0710 H         6        0    0.0000
     41 H          52.5318  123.4514  -24.2292 H         6        0    0.0000
     42 H          51.0706  124.4328  -24.2185 H         6        0    0.0000
     43 C          51.1166  122.9059  -22.6578 C.3       7        0    0.0000
     44 C          51.0497  124.0561  -21.6471 C.3       7        0    0.0000
     45 H          50.1620  122.3657  -22.6766 H         7        0    0.0000
     46 H          51.8824  122.1818  -22.3534 H         7        0    0.0000
     47 H          52.0362  124.5250  -21.5449 H         7        0    0.0000
     48 H          50.3666  124.8349  -22.0082 H         7        0    0.0000
     49 C          50.5687  123.5779  -20.2338 C.3       8        0    0.0000
     50 C          51.5312  124.0011  -19.1187 C.3       8        0    0.0000
     51 H          49.5689  123.9874  -20.0432 H         8        0    0.0000
     52 H          50.4646  122.4858  -20.2465 H         8        0    0.0000
     53 H          52.5674  123.9450  -19.4748 H         8        0    0.0000
     54 H          51.3495  125.0470  -18.8417 H         8        0    0.0000
     55 C          51.3877  123.1072  -17.8389 C.3       9        0    0.0000
     56 C          51.1066  123.9356  -16.5804 C.3       9        0    0.0000
     57 H          50.5789  122.3840  -18.0016 H         9        0    0.0000
     58 H          52.3088  122.5257  -17.7086 H         9        0    0.0000
     59 H          52.0244  124.4351  -16.2461 H         9        0    0.0000
     60 H          50.3812  124.7272  -16.8053 H         9        0    0.0000
     61 C          50.5509  123.0601  -15.4047 C.3      10        0    0.0000
     62 C          50.9964  123.5791  -14.0331 C.3      10        0    0.0000
     63 H          49.4555  123.0438  -15.4631 H        10        0    0.0000
     64 H          50.8892  122.0258  -15.5436 H        10        0    0.0000
     65 H          52.0818  123.7382  -14.0256 H        10        0    0.0000
     66 H          50.5338  124.5531  -13.8311 H        10        0    0.0000
     67 C          50.6224  122.5919  -12.8742 C.3      11        0    0.0000
     68 C          50.8727  123.1999  -11.4898 C.3      11        0    0.0000
     69 H          49.5669  122.3106  -12.9762 H        11        0    0.0000
     70 H          51.2067  121.6709  -12.9919 H        11        0    0.0000
     71 H          51.9363  123.4417  -11.3719 H        11        0    0.0000
     72 H          50.3221  124.1433  -11.3881 H        11        0    0.0000
     73 C          50.4422  122.2360  -10.3309 C.3      12        0    0.0000
     74 C          50.7038  122.8392   -8.9464 C.3      12        0    0.0000
     75 H          49.3766  122.0013  -10.4438 H        12        0    0.0000
     76 H          50.9864  121.2895  -10.4378 H        12        0    0.0000
     77 H          51.7688  123.0774   -8.8350 H        12        0    0.0000
     78 H          50.1566  123.7839   -8.8382 H        12        0    0.0000
     79 C          50.2781  121.8731   -7.7875 C.3      13        0    0.0000
     80 C          50.5430  122.4748   -6.4030 C.3      13        0    0.0000
     81 H          49.2124  121.6370   -7.8974 H        13        0    0.0000
     82 H          50.8233  120.9275   -7.8972 H        13        0    0.0000
     83 H          51.6088  122.7102   -6.2928 H        13        0    0.0000
     84 H          49.9985  123.4209   -6.2935 H        13        0    0.0000
     85 C          50.1163  121.5092   -5.2441 C.3      14        0    0.0000
     86 C          50.3833  122.1100   -3.8595 C.3      14        0    0.0000
     87 H          49.0501  121.2751   -5.3533 H        14        0    0.0000
     88 H          50.6597  120.5626   -5.3545 H        14        0    0.0000
     89 H          51.4487  122.3482   -3.7519 H        14        0    0.0000
     90 H          49.8364  123.0544   -3.7475 H        14        0    0.0000
     91 C          49.9624  121.1418   -2.7006 C.3      15        0    0.0000
     92 C          50.2271  121.7435   -1.3161 C.3      15        0    0.0000
     93 H          48.8973  120.9022   -2.8093 H        15        0    0.0000
     94 H          50.5105  120.1980   -2.8117 H        15        0    0.0000
     95 H          51.2918  121.9853   -1.2084 H        15        0    0.0000
     96 H          49.6771  122.6861   -1.2042 H        15        0    0.0000
     97 C          49.8093  120.7741   -0.1572 C.3      16        0    0.0000
     98 C          49.8795  121.4479    1.2175 C.3      16        0    0.0000
     99 H          48.7909  120.4134   -0.3478 H        16        0    0.0000
    100 H          50.4643  119.8943   -0.1788 H        16        0    0.0000
    101 H          50.9122  121.4407    1.5877 H        16        0    0.0000
    102 H          49.5814  122.5006    1.1361 H        16        0    0.0000
    103 C          48.9596  120.7424    2.2727 C.3      17        0    0.0000
    104 C          49.0431  121.4055    3.6519 C.3      17        0    0.0000
    105 H          47.9249  120.7610    1.9084 H        17        0    0.0000
    106 H          49.2492  119.6867    2.3447 H        17        0    0.0000
    107 H          48.5456  122.3830    3.6301 H        17        0    0.0000
    108 H          48.5112  120.7978    4.3944 H        17        0    0.0000
    109 C          50.5238  121.6027    4.1276 C.3      18        0    0.0000
    110 C          50.6074  122.2687    5.5054 C.3      18        0    0.0000
    111 H          51.0206  120.6249    4.1517 H        18        0    0.0000
    112 H          51.0564  122.2084    3.3840 H        18        0    0.0000
    113 H          51.1453  121.6179    6.2059 H        18        0    0.0000
    114 H          51.1811  123.2014    5.4382 H        18        0    0.0000
    115 C          49.1916  122.5880    6.0979 C.3      19        0    0.0000
    116 C          49.2540  122.9601    7.5834 C.3      19        0    0.0000
    117 H          48.7445  123.4085    5.5231 H        19        0    0.0000
    118 H          48.5436  121.7142    5.9559 H        19        0    0.0000
    119 H          50.0174  122.3570    8.0905 H        19        0    0.0000
    120 H          49.5550  124.0090    7.6961 H        19        0    0.0000
    121 C          47.8797  122.7482    8.3072 C.3      20        0    0.0000
    122 C          47.9405  123.1261    9.7913 C.3      20        0    0.0000
    123 H          47.1154  123.3478    7.7973 H        20        0    0.0000
    124 H          47.5808  121.6983    8.1982 H        20        0    0.0000
    125 H          46.9325  123.1140   10.2241 H        20        0    0.0000
    126 H          48.5298  122.3843   10.3445 H        20        0    0.0000
    127 C          48.5709  124.5433   10.0182 C.3      21        0    0.0000
    128 C          48.7863  124.8521   11.5038 C.3      21        0    0.0000
    129 H          49.5258  124.5957    9.4807 H        21        0    0.0000
    130 H          47.9144  125.2985    9.5683 H        21        0    0.0000
    131 H          49.8586  124.8559   11.7356 H        21        0    0.0000
    132 H          48.4099  125.8557   11.7379 H        21        0    0.0000
    133 C          48.0714  123.8142   12.4361 C.3      22        0    0.0000
    134 C          48.1910  124.1859   13.9182 C.3      22        0    0.0000
    135 H          47.0147  123.7497   12.1486 H        22        0    0.0000
    136 H          48.5068  122.8227   12.2607 H        22        0    0.0000
    137 H          49.0220  123.6366   14.3779 H        22        0    0.0000
    138 H          48.4236  125.2530   14.0209 H        22        0    0.0000
    139 C          46.8777  123.8760   14.7162 C.3      23        0    0.0000
    140 C          46.9722  124.3126   16.1823 C.3      23        0    0.0000
    141 H          46.0379  124.3838   14.2259 H        23        0    0.0000
    142 H          46.6733  122.7998   14.6566 H        23        0    0.0000
    143 H          46.2369  125.1003   16.3884 H        23        0    0.0000
    144 H          46.7259  123.4713   16.8420 H        23        0    0.0000
    145 C          48.3995  124.8444   16.5530 C.3      24        0    0.0000
    146 C          48.4831  125.3179   18.0083 C.3      24        0    0.0000
    147 H          49.1314  124.0470   16.3743 H        24        0    0.0000
    148 H          48.6577  125.6668   15.8745 H        24        0    0.0000
    149 H          49.2894  124.7881   18.5305 H        24        0    0.0000
    150 H          48.7335  126.3854   18.0428 H        24        0    0.0000
    151 C          47.1413  125.0883   18.7858 C.3      25        0    0.0000
    152 C          47.2327  125.5390   20.2478 C.3      25        0    0.0000
    153 H          46.3383  125.6330   18.2738 H        25        0    0.0000
    154 H          46.8814  124.0237   18.7358 H        25        0    0.0000
    155 H          48.1955  125.2338   20.6760 H        25        0    0.0000
    156 H          47.1944  126.6338   20.3071 H        25        0    0.0000
    157 C          46.0781  124.9447   21.1260 C.3      26        0    0.0000
    158 C          46.1618  125.4060   22.5851 C.3      26        0    0.0000
    159 H          45.1152  125.2417   20.6922 H        26        0    0.0000
    160 H          46.1225  123.8497   21.0745 H        26        0    0.0000
    161 H          45.2469  125.9443   22.8625 H        26        0    0.0000
    162 H          46.2302  124.5369   23.2511 H        26        0    0.0000
    163 C          47.3949  126.3389   22.8435 C.3      27        0    0.0000
    164 C          47.4582  126.8295   24.2941 C.3      27        0    0.0000
    165 H          48.3115  125.7914   22.5912 H        27        0    0.0000
    166 H          47.3405  127.1945   22.1590 H        27        0    0.0000
    167 H          48.4246  126.5626   24.7396 H        27        0    0.0000
    168 H          47.3889  127.9239   24.3244 H        27        0    0.0000
    169 C          46.3113  126.2259   25.1760 C.3      28        0    0.0000
    170 C          46.3561  126.7407   26.6190 C.3      28        0    0.0000
    171 H          45.3456  126.4734   24.7182 H        28        0    0.0000
    172 H          46.3945  125.1321   25.1641 H        28        0    0.0000
    173 H          46.0163  127.7831   26.6572 H        28        0    0.0000
    174 H          45.6674  126.1616   27.2465 H        28        0    0.0000
    175 C          47.7948  126.6553   27.2358 C.3      29        0    0.0000
    176 C          47.8316  127.1320   28.6920 C.3      29        0    0.0000
    177 H          48.1465  125.6182   27.1705 H        29        0    0.0000
    178 H          48.4778  127.2587   26.6251 H        29        0    0.0000
    179 H          48.1525  126.3132   29.3478 H        29        0    0.0000
    180 H          48.5701  127.9351   28.8063 H        29        0    0.0000
    181 C          46.4370  127.6545   29.1816 C.3      30        0    0.0000
    182 C          46.4042  127.8912   30.6955 C.3      30        0    0.0000
    183 H          46.2016  128.5849   28.6501 H        30        0    0.0000
    184 H          45.6671  126.9262   28.8979 H        30        0    0.0000
    185 H          46.7160  126.9825   31.2251 H        30        0    0.0000
    186 H          47.1198  128.6765   30.9690 H        30        0    0.0000
    187 C          44.9798  128.3071   31.2010 C.3      31        0    0.0000
    188 C          44.9505  128.5585   32.7126 C.3      31        0    0.0000
    189 H          44.6634  129.2096   30.6634 H        31        0    0.0000
    190 H          44.2662  127.5168   30.9372 H        31        0    0.0000
    191 H          43.9861  128.9936   33.0029 H        31        0    0.0000
    192 H          45.0433  127.6088   33.2538 H        31        0    0.0000
    193 C          46.0986  129.5193   33.1775 C.3      32        0    0.0000
    194 C          46.2301  129.5715   34.7036 C.3      32        0    0.0000
    195 H          47.0427  129.1848   32.7298 H        32        0    0.0000
    196 H          45.9011  130.5235   32.7824 H        32        0    0.0000
    197 H          47.1165  129.0102   35.0242 H        32        0    0.0000
    198 H          46.3771  130.6075   35.0333 H        32        0    0.0000
    199 C          44.9705  128.9843   35.4289 C.3      33        0    0.0000
    200 C          45.0558  129.1320   36.9520 C.3      33        0    0.0000
    201 H          44.0754  129.4937   35.0510 H        33        0    0.0000
    202 H          44.8683  127.9259   35.1587 H        33        0    0.0000
    203 H          44.2429  128.5716   37.4303 H        33        0    0.0000
    204 H          45.9949  128.7004   37.3198 H        33        0    0.0000
    205 C          44.9745  130.6293   37.4091 C.3      34        0    0.0000
    206 C          44.9912  130.7725   38.9350 C.3      34        0    0.0000
    207 H          45.8164  131.1791   36.9705 H        34        0    0.0000
    208 H          44.0595  131.0749   36.9995 H        34        0    0.0000
    209 H          45.7888  131.4614   39.2395 H        34        0    0.0000
    210 H          44.0471  131.2104   39.2821 H        34        0    0.0000
    211 C          45.2069  129.3985   39.6583 C.3      35        0    0.0000
    212 C          45.0381  129.5090   41.1776 C.3      35        0    0.0000
    213 H          44.4943  128.6696   39.2527 H        35        0    0.0000
    214 H          46.2102  129.0258   39.4174 H        35        0    0.0000
    215 H          44.1108  129.0131   41.4901 H        35        0    0.0000
    216 H          45.8599  128.9899   41.6862 H        35        0    0.0000
    217 C          45.0032  130.9987   41.6646 C.3      36        0    0.0000
    218 C          44.6972  131.1132   43.1620 C.3      36        0    0.0000
    219 H          45.9702  131.4664   41.4414 H        36        0    0.0000
    220 H          44.2484  131.5431   41.0837 H        36        0    0.0000
    221 H          45.5290  130.7035   43.7484 H        36        0    0.0000
    222 H          44.6008  132.1683   43.4467 H        36        0    0.0000
    223 C          43.3805  130.3606   43.5586 C.3      37        0    0.0000
    224 C          43.1267  130.3911   45.0698 C.3      37        0    0.0000
    225 H          42.5375  130.8184   43.0263 H        37        0    0.0000
    226 H          43.4475  129.3228   43.2093 H        37        0    0.0000
    227 H          42.1094  130.7479   45.2732 H        37        0    0.0000
    228 H          43.1933  129.3770   45.4829 H        37        0    0.0000
    229 C          44.1458  131.3123   45.8249 C.3      38        0    0.0000
    230 C          43.8752  131.3643   47.3326 C.3      38        0    0.0000
    231 H          45.1619  130.9435   45.6376 H        38        0    0.0000
    232 H          44.0934  132.3217   45.3983 H        38        0    0.0000
    233 H          42.7953  131.4159   47.5194 H        38        0    0.0000
    234 H          44.2340  130.4446   47.8111 H        38        0    0.0000
    235 C          44.5659  132.5932   48.0182 C.3      39        0    0.0000
    236 C          44.2733  132.6601   49.5212 C.3      39        0    0.0000
    237 H          45.6479  132.5310   47.8480 H        39        0    0.0000
    238 H          44.2220  133.5117   47.5267 H        39        0    0.0000
    239 H          44.8044  131.8550   50.0440 H        39        0    0.0000
    240 H          44.6468  133.6048   49.9354 H        39        0    0.0000
    241 C          42.7418  132.5416   49.8341 C.3      40        0    0.0000
    242 C          42.4591  132.4883   51.3395 C.3      40        0    0.0000
    243 H          42.2217  133.3961   49.3837 H        40        0    0.0000
    244 H          42.3497  131.6410   49.3456 H        40        0    0.0000
    245 H          41.6851  133.2198   51.6030 H        40        0    0.0000
    246 H          42.0663  131.5014   51.6138 H        40        0    0.0000
    247 C          43.7402  132.7780   52.1953 C.3      41        0    0.0000
    248 C          43.4259  132.8930   53.6909 C.3      41        0    0.0000
    249 H          44.4684  131.9754   52.0245 H        41        0    0.0000
    250 H          44.2034  133.7052   51.8358 H        41        0    0.0000
    251 H          42.4696  132.4036   53.9131 H        41        0    0.0000
    252 H          44.1913  132.3698   54.2775 H        41        0    0.0000
    253 C          43.3538  134.3840   54.1699 C.3      42        0    0.0000
    254 C          43.0812  134.4984   55.6737 C.3      42        0    0.0000
    255 H          44.2989  134.8818   53.9200 H        42        0    0.0000
    256 H          42.5673  134.8993   53.6047 H        42        0    0.0000
    257 H          43.9177  135.0057   56.1701 H        42        0    0.0000
    258 H          42.1905  135.1145   55.8488 H        42        0    0.0000
    259 C          42.8678  133.0989   56.3470 C.3      43        0    0.0000
    260 C          42.6871  133.2062   57.8652 C.3      43        0    0.0000
    261 H          41.9896  132.6200   55.8966 H        43        0    0.0000
    262 H          43.7288  132.4599   56.1149 H        43        0    0.0000
    263 H          41.7765  132.6780   58.1739 H        43        0    0.0000
    264 H          43.5242  132.7176   58.3791 H        43        0    0.0000
    265 C          42.5966  134.6945   58.3490 C.3      44        0    0.0000
    266 C          42.4653  134.8032   59.8722 C.3      44        0    0.0000
    267 H          43.4907  135.2318   58.0092 H        44        0    0.0000
    268 H          41.7376  135.1729   57.8623 H        44        0    0.0000
    269 H          43.4293  134.5871   60.3492 H        44        0    0.0000
    270 H          42.1971  135.8288   60.1544 H        44        0    0.0000
    271 C          41.3860  133.8223   60.4469 C.3      45        0    0.0000
    272 C          41.2973  133.8874   61.9757 C.3      45        0    0.0000
    273 H          40.4133  134.0673   60.0029 H        45        0    0.0000
    274 H          41.6300  132.8015   60.1275 H        45        0    0.0000
    275 H          40.2640  134.0893   62.2842 H        45        0    0.0000
    276 H          41.5722  132.9183   62.4101 H        45        0    0.0000
    277 C          42.2299  134.9940   62.5783 C.3      46        0    0.0000
    278 C          42.0338  135.1592   64.0893 C.3      46        0    0.0000
    279 H          43.2733  134.7342   62.3606 H        46        0    0.0000
    280 H          42.0283  135.9434   62.0668 H        46        0    0.0000
    281 H          41.0601  134.7523   64.3890 H        46        0    0.0000
    282 H          42.7954  134.5861   64.6324 H        46        0    0.0000
    283 C          42.1144  136.6590   64.5384 C.3      47        0    0.0000
    284 C          41.8937  136.8266   66.0458 C.3      47        0    0.0000
    285 H          43.0951  137.0608   64.2548 H        47        0    0.0000
    286 H          41.3649  137.2355   63.9821 H        47        0    0.0000
    287 H          42.7526  137.3387   66.4971 H        47        0    0.0000
    288 H          41.0171  137.4602   66.2295 H        47        0    0.0000
    289 C          41.6856  135.4531   66.7721 C.3      48        0    0.0000
    290 C          41.4491  135.6218   68.2770 C.3      48        0    0.0000
    291 H          40.8340  134.9359   66.3131 H        48        0    0.0000
    292 H          42.5673  134.8239   66.5982 H        48        0    0.0000
    293 H          40.4463  136.0288   68.4569 H        48        0    0.0000
    294 H          41.4868  134.6453   68.7755 H        48        0    0.0000
    295 C          42.5059  136.5697   68.9419 C.3      49        0    0.0000
    296 C          42.1373  136.9284   70.3857 C.3      49        0    0.0000
    297 H          43.4870  136.0796   68.9148 H        49        0    0.0000
    298 H          42.5924  137.4816   68.3382 H        49        0    0.0000
    299 H          43.0245  136.8631   71.0278 H        49        0    0.0000
    300 H          41.7866  137.9666   70.4376 H        49        0    0.0000
    301 C          41.0239  135.9894   70.9655 C.3      50        0    0.0000
    302 C          40.6062  136.3911   72.3844 C.3      50        0    0.0000
    303 H          40.1552  136.0158   70.2960 H        50        0    0.0000
    304 H          41.3943  134.9568   70.9605 H        50        0    0.0000
    305 H          39.9702  137.2843   72.3506 H        50        0    0.0000
    306 H          40.0056  135.5938   72.8396 H        50        0    0.0000
    307 C          41.8397  136.6836   73.3064 C.3      51        0    0.0000
    308 C          41.4251  137.2498   74.6690 C.3      51        0    0.0000
    309 H          42.4080  135.7550   73.4420 H        51        0    0.0000
    310 H          42.5056  137.3884   72.7931 H        51        0    0.0000
    311 H          41.9809  136.7470   75.4701 H        51        0    0.0000
    312 H          41.6819  138.3147   74.7278 H        51        0    0.0000
    313 C          39.8897  137.0845   74.9387 C.3      52        0    0.0000
    314 C          39.4944  137.5444   76.3463 C.3      52        0    0.0000
    315 H          39.3348  137.6580   74.1859 H        52        0    0.0000
    316 H          39.6170  136.0314   74.7966 H        52        0    0.0000
    317 H          38.6444  138.2358   76.2912 H        52        0    0.0000
    318 H          39.1638  136.6857   76.9436 H        52        0    0.0000
    319 C          40.6758  138.2546   77.0929 C.3      53        0    0.0000
    320 C          40.3449  138.5434   78.5613 C.3      53        0    0.0000
    321 H          41.5684  137.6203   77.0262 H        53        0    0.0000
    322 H          40.9137  139.1892   76.5700 H        53        0    0.0000
    323 H          41.0747  139.2475   78.9799 H        53        0    0.0000
    324 H          39.3624  139.0255   78.6377 H        53        0    0.0000
    325 C          40.3389  137.2424   79.4359 C.3      54        0    0.0000
    326 C          40.0474  137.5361   80.9117 C.3      54        0    0.0000
    327 H          39.5884  136.5501   79.0347 H        54        0    0.0000
    328 H          41.3116  136.7449   79.3363 H        54        0    0.0000
    329 H          38.9997  137.8369   81.0355 H        54        0    0.0000
    330 H          40.1873  136.6277   81.5107 H        54        0    0.0000
    331 C          40.9691  138.6667   81.4857 C.3      55        0    0.0000
    332 C          40.6669  138.9714   82.9571 C.3      55        0    0.0000
    333 H          42.0165  138.3608   81.3724 H        55        0    0.0000
    334 H          40.8379  139.5717   80.8796 H        55        0    0.0000
    335 H          41.4402  139.6301   83.3714 H        55        0    0.0000
    336 H          39.7153  139.5106   83.0419 H        55        0    0.0000
    337 C          40.5904  137.6711   83.8294 C.3      56        0    0.0000
    338 C          40.2039  137.9684   85.2825 C.3      56        0    0.0000
    339 H          39.8618  136.9856   83.3791 H        56        0    0.0000
    340 H          41.5628  137.1644   83.7950 H        56        0    0.0000
    341 H          39.2113  138.4342   85.3199 H        56        0    0.0000
    342 H          40.1347  137.0334   85.8521 H        56        0    0.0000
    343 C          41.2337  138.9157   85.9893 C.3      57        0    0.0000
    344 C          40.9174  139.1114   87.4761 C.3      57        0    0.0000
    345 H          42.2400  138.4951   85.8710 H        57        0    0.0000
    346 H          41.2345  139.8843   85.4741 H        57        0    0.0000
    347 H          41.6950  138.6418   88.0911 H        57        0    0.0000
    348 H          40.9221  140.1801   87.7241 H        57        0    0.0000
    349 C          39.5262  138.5069   87.8721 C.3      58        0    0.0000
    350 C          39.2901  138.5360   89.3862 C.3      58        0    0.0000
    351 H          38.7370  139.0689   87.3575 H        58        0    0.0000
    352 H          39.4707  137.4755   87.5025 H        58        0    0.0000
    353 H          39.2179  139.5733   89.7358 H        58        0    0.0000
    354 H          38.3339  138.0551   89.6270 H        58        0    0.0000
    355 C          40.4329  137.8137   90.1797 C.3      59        0    0.0000
    356 C          40.2737  137.9673   91.6963 C.3      59        0    0.0000
    357 H          40.4354  136.7510   89.9074 H        59        0    0.0000
    358 H          41.3990  138.2232   89.8596 H        59        0    0.0000
    359 H          39.3765  137.4353   92.0361 H        59        0    0.0000
    360 H          41.1263  137.5087   92.2124 H        59        0    0.0000
    361 C          40.1667  139.4689   92.1334 C.3      60        0    0.0000
    362 C          40.0111  139.6227   93.6504 C.3      60        0    0.0000
    363 H          41.0627  140.0015   91.7913 H        60        0    0.0000
    364 H          39.3125  139.9269   91.6193 H        60        0    0.0000
    365 H          40.8252  140.2391   94.0515 H        60        0    0.0000
    366 H          39.0756  140.1472   93.8813 H        60        0    0.0000
    367 C          40.0117  138.2409   94.3907 C.3      61        0    0.0000
    368 C          39.9879  138.3986   95.9151 C.3      61        0    0.0000
    369 H          39.1412  137.6615   94.0588 H        61        0    0.0000
    370 H          40.9012  137.6762   94.0848 H        61        0    0.0000
    371 H          40.3346  139.4011   96.1950 H        61        0    0.0000
    372 H          38.9599  138.3056   96.2868 H        61        0    0.0000
    373 C          40.8844  137.3342   96.6366 C.3      62        0    0.0000
    374 C          40.8484  137.4821   98.1616 C.3      62        0    0.0000
    375 H          40.5449  136.3317   96.3477 H        62        0    0.0000
    376 H          41.9146  137.4348   96.2731 H        62        0    0.0000
    377 H          41.3591  136.6338   98.6340 H        62        0    0.0000
    378 H          41.3918  138.3856   98.4649 H        62        0    0.0000
    379 C          39.3843  137.5630   98.7162 C.3      63        0    0.0000
    380 C          39.3422  138.0102  100.1816 C.3      63        0    0.0000
    381 H          38.8084  138.2590   98.0938 H        63        0    0.0000
    382 H          38.9109  136.5791   98.6094 H        63        0    0.0000
    383 H          39.0350  139.0614  100.2454 H        63        0    0.0000
    384 H          38.5914  137.4287  100.7309 H        63        0    0.0000
    385 C          40.7292  137.8450  100.8932 C.3      64        0    0.0000
    386 C          40.6783  138.2592  102.3680 C.3      64        0    0.0000
    387 H          41.0485  136.7990  100.8071 H        64        0    0.0000
    388 H          41.4747  138.4470  100.3590 H        64        0    0.0000
    389 H          41.6211  137.9984  102.8647 H        64        0    0.0000
    390 H          40.5700  139.3478  102.4495 H        64        0    0.0000
    391 C          39.4960  137.5747  103.1369 C.3      65        0    0.0000
    392 C          39.4501  137.9825  104.6135 C.3      65        0    0.0000
    393 H          38.5527  137.8404  102.6437 H        65        0    0.0000
    394 H          39.6011  136.4861  103.0503 H        65        0    0.0000
    395 H          39.1153  139.0231  104.7062 H        65        0    0.0000
    396 H          38.7181  137.3671  105.1512 H        65        0    0.0000
    397 C          40.8449  137.8363  105.3140 C.3      66        0    0.0000
    398 C          40.7971  138.2363  106.7927 C.3      66        0    0.0000
    399 H          41.1824  136.7970  105.2161 H        66        0    0.0000
    400 H          41.5755  138.4564  104.7800 H        66        0    0.0000
    401 H          41.7408  137.9705  107.2850 H        66        0    0.0000
    402 H          40.6892  139.3242  106.8848 H        66        0    0.0000
    403 C          39.6161  137.5449  107.5573 C.3      67        0    0.0000
    404 C          39.5326  137.9899  109.0216 C.3      67        0    0.0000
    405 H          38.6766  137.7757  107.0399 H        67        0    0.0000
    406 H          39.7474  136.4572  107.5017 H        67        0    0.0000
    407 H          39.1195  139.0044  109.0835 H        67        0    0.0000
    408 H          38.8469  137.3363  109.5749 H        67        0    0.0000
    409 C          40.9312  137.9698  109.7293 C.3      68        0    0.0000
    410 C          40.8368  138.3414  111.2132 C.3      68        0    0.0000
    411 H          41.3689  136.9699  109.6191 H        68        0    0.0000
    412 H          41.6008  138.6659  109.2091 H        68        0    0.0000
    413 H          41.8113  138.2048  111.6980 H        68        0    0.0000
    414 H          40.5779  139.4022  111.3196 H        68        0    0.0000
    415 C          39.7691  137.4820  111.9741 C.3      69        0    0.0000
    416 C          39.6142  137.9104  113.4375 C.3      69        0    0.0000
    417 H          38.8078  137.5697  111.4527 H        69        0    0.0000
    418 H          40.0615  136.4260  111.9202 H        69        0    0.0000
    419 H          39.0303  138.8372  113.4983 H        69        0    0.0000
    420 H          39.0553  137.1488  113.9953 H        69        0    0.0000
    421 C          40.9972  138.1376  114.1396 C.3      70        0    0.0000
    422 C          40.8441  138.4990  115.6211 C.3      70        0    0.0000
    423 H          41.6007  137.2274  114.0348 H        70        0    0.0000
    424 H          41.5352  138.9347  113.6116 H        70        0    0.0000
    425 H          41.8287  138.5325  116.1039 H        70        0    0.0000
    426 H          40.4101  139.5016  115.7209 H        70        0    0.0000
    427 C          39.9382  137.4774  116.3913 C.3      71        0    0.0000
    428 C          39.6919  137.8996  117.8439 C.3      71        0    0.0000
    429 H          38.9830  137.3815  115.8603 H        71        0    0.0000
    430 H          40.4153  136.4899  116.3623 H        71        0    0.0000
    431 H          38.9253  138.6834  117.8830 H        71        0    0.0000
    432 H          39.3048  137.0512  118.4218 H        71        0    0.0000
    433 C          40.9937  138.4310  118.5370 C.3      72        0    0.0000
    434 C          40.7241  138.9637  119.9486 C.3      72        0    0.0000
    435 H          41.7304  137.6191  118.5756 H        72        0    0.0000
    436 H          41.4287  139.2218  117.9133 H        72        0    0.0000
    437 H          41.4344  138.5228  120.6590 H        72        0    0.0000
    438 H          40.8821  140.0489  119.9777 H        72        0    0.0000
    439 C          39.2660  138.6522  120.4328 C.3      73        0    0.0000
    440 C          39.0854  138.9068  121.9333 C.3      73        0    0.0000
    441 H          38.5635  139.2696  119.8593 H        73        0    0.0000
    442 H          39.0311  137.6067  120.1977 H        73        0    0.0000
    443 H          38.1145  139.3821  122.1200 H        73        0    0.0000
    444 H          39.0801  137.9548  122.4784 H        73        0    0.0000
    445 C          40.2162  139.8195  122.5214 C.3      74        0    0.0000
    446 C          39.6646  140.8885  123.4712 C.3      74        0    0.0000
    447 H          40.9427  139.1878  123.0473 H        74        0    0.0000
    448 H          40.7542  140.2949  121.6919 H        74        0    0.0000
    449 H          38.9380  141.5202  122.9453 H        74        0    0.0000
    450 H          39.1266  140.4132  124.3007 H        74        0    0.0000
    451 H          40.4508  141.5231  123.8801 H        74        0    0.0000
    452 H          49.2798  122.4687  -40.4349 H         0        0    0.0000
@<TRIPOS>BOND
     1     1     2      1
     2     1     3      1
     3     1     4      1
     4     1   452      H
     5     2     5      1
     6     2     6      1
     7     2     7      1
     8     7     8      1
     9     7     9      1
    10     7    10      1
    11     8    11      1
    12     8    12      1
    13     8    13      1
    14    13    14      1
    15    13    15      1
    16    13    16      1
    17    14    17      1
    18    14    18      1
    19    14    19      1
    20    19    20      1
    21    19    21      1
    22    19    22      1
    23    20    23      1
    24    20    24      1
    25    20    25      1
    26    25    26      1
    27    25    27      1
    28    25    28      1
    29    26    29      1
    30    26    30      1
    31    26    31      1
    32    31    32      1
    33    31    33      1
    34    31    34      1
    35    32    35      1
    36    32    36      1
    37    32    37      1
    38    37    38      1
    39    37    39      1
    40    37    40      1
    41    38    41      1
    42    38    42      1
    43    38    43      1
    44    43    44      1
    45    43    45      1
    46    43    46      1
    47    44    47      1
    48    44    48      1
    49    44    49      1
    50    49    50      1
    51    49    51      1
    52    49    52      1
    53    50    53      1
    54    50    54      1
    55    50    55      1
    56    55    56      1
    57    55    57      1
    58    55    58      1
    59    56    59      1
    60    56    60      1
    61    56    61      1
    62    61    62      1
    63    61    63      1
    64    61    64      1
    65    62    65      1
    66    62    66      1
    67    62    67      1
    68    67    68      1
    69    67    69      1
    70    67    70      1
    71    68    71      1
    72    68    72      1
    73    68    73      1
    74    73    74      1
    75    73    75      1
    76    73    76      1
    77    74    77      1
    78    74    78      1
    79    74    79      1
    80    79    80      1
    81    79    81      1
    82    79    82      1
    83    80    83      1
    84    80    84      1
    85    80    85      1
    86    85    86      1
    87    85    87      1
    88    85    88      1
    89    86    89      1
    90    86    90      1
    91    86    91      1
    92    91    92      1
    93    91    93      1
    94    91    94      1
    95    92    95      1
    96    92    96      1
    97    92    97      1
    98    97    98      1
    99    97    99      1
   100    97   100      1
   101    98   101      1
   102    98   102      1
   103    98   103      1
   104   103   104      1
   105   103   105      1
   106   103   106      1
   107   104   107      1
   108   104   108      1
   109   104   109      1
   110   109   110      1
   111   109   111      1
   112   109   112      1
   113   110   113      1
   114   110   114      1
   115   110   115      1
   116   115   116      1
   117   115   117      1
   118   115   118      1
   119   116   119      1
   120   116   120      1
   121   116   121      1
   122   121   122      1
   123   121   123      1
   124   121   124      1
   125   122   125      1
   126   122   126      1
   127   122   127      1
   128   127   128      1
   129   127   129      1
   130   127   130      1
   131   128   131      1
   132   128   132      1
   133   128   133      1
   134   133   134      1
   135   133   135      1
   136   133   136      1
   137   134   137      1
   138   134   138      1
   139   134   139      1
   140   139   140      1
   141   139   141      1
   142   139   142      1
   143   140   143      1
   144   140   144      1
   145   140   145      1
   146   145   146      1
   147   145   147      1
   148   145   148      1
   149   146   149      1
   150   146   150      1
   151   146   151      1
   152   151   152      1
   153   151   153      1
   154   151   154      1
   155   152   155      1
   156   152   156      1
   157   152   157      1
   158   157   158      1
   159   157   159      1
   160   157   160      1
   161   158   161      1
   162   158   162      1
   163   158   163      1
   164   163   164      1
   165   163   165      1
   166   163   166      1
   167   164   167      1
   168   164   168      1
   169   164   169      1
   170   169   170      1
   171   169   171      1
   172   169   172      1
   173   170   173      1
   174   170   174      1
   175   170   175      1
   176   175   176      1
   177   175   177      1
   178   175   178      1
   179   176   179      1
   180   176   180      1
   181   176   181      1
   182   181   182      1
   183   181   183      1
   184   181   184      1
   185   182   185      1
   186   182   186      1
   187   182   187      1
   188   187   188      1
   189   187   189      1
   190   187   190      1
   191   188   191      1
   192   188   192      1
   193   188   193      1
   194   193   194      1
   195   193   195      1
   196   193   196      1
   197   194   197      1
   198   194   198      1
   199   194   199      1
   200   199   200      1
   201   199   201      1
   202   199   202      1
   203   200   203      1
   204   200   204      1
   205   200   205      1
   206   205   206      1
   207   205   207      1
   208   205   208      1
   209   206   209      1
   210   206   210      1
   211   206   211      1
   212   211   212      1
   213   211   213      1
   214   211   214      1
   215   212   215      1
   216   212   216      1
   217   212   217      1
   218   217   218      1
   219   217   219      1
   220   217   220      1
   221   218   221      1
   222   218   222      1
   223   218   223      1
   224   223   224      1
   225   223   225      1
   226   223   226      1
   227   224   227      1
   228   224   228      1
   229   224   229      1
   230   229   230      1
   231   229   231      1
   232   229   232      1
   233   230   233      1
   234   230   234      1
   235   230   235      1
   236   235   236      1
   237   235   237      1
   238   235   238      1
   239   236   239      1
   240   236   240      1
   241   236   241      1
   242   241   242      1
   243   241   243      1
   244   241   244      1
   245   242   245      1
   246   242   246      1
   247   242   247      1
   248   247   248      1
   249   247   249      1
   250   247   250      1
   251   248   251      1
   252   248   252      1
   253   248   253      1
   254   253   254      1
   255   253   255      1
   256   253   256      1
   257   254   257      1
   258   254   258      1
   259   254   259      1
   260   259   260      1
   261   259   261      1
   262   259   262      1
   263   260   263      1
   264   260   264      1
   265   260   265      1
   266   265   266      1
   267   265   267      1
   268   265   268      1
   269   266   269      1
   270   266   270      1
   271   266   271      1
   272   271   272      1
   273   271   273      1
   274   271   274      1
   275   272   275      1
   276   272   276      1
   277   272   277      1
   278   277   278      1
   279   277   279      1
   280   277   280      1
   281   278   281      1
   282   278   282      1
   283   278   283      1
   284   283   284      1
   285   283   285      1
   286   283   286      1
   287   284   287      1
   288   284   288      1
   289   284   289      1
   290   289   290      1
   291   289   291      1
   292   289   292      1
   293   290   293      1
   294   290   294      1
   295   290   295      1
   296   295   296      1
   297   295   297      1
   298   295   298      1
   299   296   299      1
   300   296   300      1
   301   296   301      1
   302   301   302      1
   303   301   303      1
   304   301   304      1
   305   302   305      1
   306   302   306      1
   307   302   307      1
   308   307   308      1
   309   307   309      1
   310   307   310      1
   311   308   311      1
   312   308   312      1
   313   308   313      1
   314   313   314      1
   315   313   315      1
   316   313   316      1
   317   314   317      1
   318   314   318      1
   319   314   319      1
   320   319   320      1
   321   319   321      1
   322   319   322      1
   323   320   323      1
   324   320   324      1
   325   320   325      1
   326   325   326      1
   327   325   327      1
   328   325   328      1
   329   326   329      1
   330   326   330      1
   331   326   331      1
   332   331   332      1
   333   331   333      1
   334   331   334      1
   335   332   335      1
   336   332   336      1
   337   332   337      1
   338   337   338      1
   339   337   339      1
   340   337   340      1
   341   338   341      1
   342   338   342      1
   343   338   343      1
   344   343   344      1
   345   343   345      1
   346   343   346      1
   347   344   347      1
   348   344   348      1
   349   344   349      1
   350   349   350      1
   351   349   351      1
   352   349   352      1
   353   350   353      1
   354   350   354      1
   355   350   355      1
   356   355   356      1
   357   355   357      1
   358   355   358      1
   359   356   359      1
   360   356   360      1
   361   356   361      1
   362   361   362      1
   363   361   363      1
   364   361   364      1
   365   362   365      1
   366   362   366      1
   367   362   367      1
   368   367   368      1
   369   367   369      1
   370   367   370      1
   371   368   371      1
   372   368   372      1
   373   368   373      1
   374   373   374      1
   375   373   375      1
   376   373   376      1
   377   374   377      1
   378   374   378      1
   379   374   379      1
   380   379   380      1
   381   379   381      1
   382   379   382      1
   383   380   383      1
   384   380   384      1
   385   380   385      1
   386   385   386      1
   387   385   387      1
   388   385   388      1
   389   386   389      1
   390   386   390      1
   391   386   391      1
   392   391   392      1
   393   391   393      1
   394   391   394      1
   395   392   395      1
   396   392   396      1
   397   392   397      1
   398   397   398      1
   399   397   399      1
   400   397   400      1
   401   398   401      1
   402   398   402      1
   403   398   403      1
   404   403   404      1
   405   403   405      1
   406   403   406      1
   407   404   407      1
   408   404   408      1
   409   404   409      1
   410   409   410      1
   411   409   411      1
   412   409   412      1
   413   410   413      1
   414   410   414      1
   415   410   415      1
   416   415   416      1
   417   415   417      1
   418   415   418      1
   419   416   419      1
   420   416   420      1
   421   416   421      1
   422   421   422      1
   423   421   423      1
   424   421   424      1
   425   422   425      1
   426   422   426      1
   427   422   427      1
   428   427   428      1
   429   427   429      1
   430   427   430      1
   431   428   431      1
   432   428   432      1
   433   428   433      1
   434   433   434      1
   435   433   435      1
   436   433   436      1
   437   434   437      1
   438   434   438      1
   439   434   439      1
   440   439   440      1
   441   439   441      1
   442   439   442      1
   443   440   443      1
   444   440   444      1
   445   440   445      1
   446   445   446      1
   447   445   447      1
   448   445   448      1
   449   446   449      1
   450   446   450      1
   451   446   451      H
