###
### Created by PolyChef-cpp17 on Thu Feb 27 19:40:30 2025
###

@<TRIPOS>MOLECULE
NO_INFO
152 151 1 0 0
SMALL
USER_CHARGES


@<TRIPOS>ATOM
      1 C          79.2798  139.7887  -39.3449 C.3       0        0    0.0000
      2 C          77.8706  139.6282  -38.7641 C.3       0        0    0.0000
      3 H          79.9271  138.9766  -38.9913 H         0        0    0.0000
      4 H          79.7280  140.7255  -38.9913 H         0        0    0.0000
      5 H          77.3726  140.6042  -38.7101 H         0        0    0.0000
      6 H          77.2608  138.9995  -39.4247 H         0        0    0.0000
      7 C          77.8872  138.9896  -37.3325 C.3       1        0    0.0000
      8 C          79.1647  139.3326  -36.5583 C.3       1        0    0.0000
      9 H          77.0067  139.3390  -36.7792 H         1        0    0.0000
     10 H          77.7869  137.9014  -37.4296 H         1        0    0.0000
     11 H          80.0451  139.1588  -37.1893 H         1        0    0.0000
     12 H          79.1707  140.3977  -36.2955 H         1        0    0.0000
     13 C          79.3090  138.4875  -35.2459 C.3       2        0    0.0000
     14 C          80.2016  139.1756  -34.2072 C.3       2        0    0.0000
     15 H          78.3104  138.3122  -34.8267 H         2        0    0.0000
     16 H          79.7202  137.5034  -35.5024 H         2        0    0.0000
     17 H          81.2572  139.0597  -34.4825 H         2        0    0.0000
     18 H          79.9969  140.2533  -34.1901 H         2        0    0.0000
     19 C          79.9891  138.5981  -32.7654 C.3       3        0    0.0000
     20 C          80.6070  139.4921  -31.6847 C.3       3        0    0.0000
     21 H          78.9131  138.4808  -32.5865 H         3        0    0.0000
     22 H          80.4276  137.5936  -32.7186 H         3        0    0.0000
     23 H          81.6961  139.5348  -31.8093 H         3        0    0.0000
     24 H          80.2373  140.5196  -31.7898 H         3        0    0.0000
     25 C          80.2837  138.9844  -30.2372 C.3       4        0    0.0000
     26 C          80.8759  139.8954  -29.1563 C.3       4        0    0.0000
     27 H          79.1948  138.9203  -30.1200 H         4        0    0.0000
     28 H          80.6731  137.9650  -30.1248 H         4        0    0.0000
     29 H          81.9655  139.9546  -29.2697 H         4        0    0.0000
     30 H          80.4912  140.9162  -29.2725 H         4        0    0.0000
     31 C          80.5452  139.3925  -27.7088 C.3       5        0    0.0000
     32 C          81.1406  140.3015  -26.6279 C.3       5        0    0.0000
     33 H          79.4555  139.3360  -27.5945 H         5        0    0.0000
     34 H          80.9274  138.3707  -27.5935 H         5        0    0.0000
     35 H          82.2304  140.3567  -26.7413 H         5        0    0.0000
     36 H          80.7595  141.3236  -26.7441 H         5        0    0.0000
     37 C          80.8080  139.7998  -25.1804 C.3       6        0    0.0000
     38 C          81.4462  140.6795  -24.0998 C.3       6        0    0.0000
     39 H          79.7184  139.7803  -25.0546 H         6        0    0.0000
     40 H          81.1557  138.7645  -25.0764 H         6        0    0.0000
     41 H          82.5354  140.7033  -24.2289 H         6        0    0.0000
     42 H          81.0944  141.7138  -24.2005 H         6        0    0.0000
     43 C          81.1199  140.1734  -22.6524 C.3       7        0    0.0000
     44 C          81.0992  141.3142  -21.6291 C.3       7        0    0.0000
     45 H          80.1488  139.6632  -22.6668 H         7        0    0.0000
     46 H          81.8660  139.4227  -22.3638 H         7        0    0.0000
     47 H          82.1001  141.7532  -21.5348 H         7        0    0.0000
     48 H          80.4346  142.1163  -21.9734 H         7        0    0.0000
     49 C          80.6222  140.8350  -20.2148 C.3       8        0    0.0000
     50 C          81.6090  141.2212  -19.1074 C.3       8        0    0.0000
     51 H          79.6362  141.2693  -20.0082 H         8        0    0.0000
     52 H          80.4886  139.7464  -20.2367 H         8        0    0.0000
     53 H          82.6395  141.1220  -19.4704 H         8        0    0.0000
     54 H          81.4720  142.2742  -18.8319 H         8        0    0.0000
     55 C          81.4379  140.3369  -17.8244 C.3       9        0    0.0000
     56 C          81.1999  141.1789  -16.5660 C.3       9        0    0.0000
     57 H          80.5991  139.6471  -17.9796 H         9        0    0.0000
     58 H          82.3353  139.7184  -17.6989 H         9        0    0.0000
     59 H          82.1393  141.6427  -16.2405 H         9        0    0.0000
     60 H          80.5044  141.9980  -16.7875 H         9        0    0.0000
     61 C          80.6196  140.3291  -15.3835 C.3      10        0    0.0000
     62 C          81.0721  140.8520  -14.0157 C.3      10        0    0.0000
     63 H          79.5243  140.3378  -15.4460 H        10        0    0.0000
     64 H          80.9341  139.2858  -15.5101 H        10        0    0.0000
     65 H          82.1612  140.9832  -14.0046 H        10        0    0.0000
     66 H          80.6339  141.8399  -13.8269 H        10        0    0.0000
     67 C          80.6672  139.8882  -12.8475 C.3      11        0    0.0000
     68 C          80.9338  140.5023  -11.4689 C.3      11        0    0.0000
     69 H          79.6040  139.6373  -12.9484 H        11        0    0.0000
     70 H          81.2240  138.9490  -12.9550 H        11        0    0.0000
     71 H          82.0034  140.7170  -11.3531 H        11        0    0.0000
     72 H          80.4083  141.4609  -11.3761 H        11        0    0.0000
     73 C          80.4780  139.5612  -10.3010 C.3      12        0    0.0000
     74 C          80.7644  140.1660   -8.9221 C.3      12        0    0.0000
     75 H          79.4049  139.3594  -10.4077 H        12        0    0.0000
     76 H          80.9915  138.5971  -10.4029 H        12        0    0.0000
     77 H          81.8366  140.3731   -8.8176 H        12        0    0.0000
     78 H          80.2462  141.1273   -8.8181 H        12        0    0.0000
     79 C          80.3160  139.2212   -7.7543 C.3      13        0    0.0000
     80 C          80.6014  139.8265   -6.3754 C.3      13        0    0.0000
     81 H          79.2440  139.0134   -7.8593 H        13        0    0.0000
     82 H          80.8349  138.2601   -7.8579 H        13        0    0.0000
     83 H          81.6734  140.0345   -6.2704 H        13        0    0.0000
     84 H          80.0824  140.7875   -6.2717 H        13        0    0.0000
     85 C          80.1533  138.8816   -5.2075 C.3      14        0    0.0000
     86 C          80.4400  139.4863   -3.8287 C.3      14        0    0.0000
     87 H          79.0810  138.6745   -5.3119 H        14        0    0.0000
     88 H          80.6715  137.9203   -5.3119 H        14        0    0.0000
     89 H          81.5125  139.6914   -3.7235 H        14        0    0.0000
     90 H          79.9235  140.4486   -3.7252 H        14        0    0.0000
     91 C          79.9891  138.5427   -2.6608 C.3      15        0    0.0000
     92 C          80.2805  139.1451   -1.2820 C.3      15        0    0.0000
     93 H          78.9157  138.3407   -2.7638 H        15        0    0.0000
     94 H          80.5027  137.5791   -2.7665 H        15        0    0.0000
     95 H          81.3553  139.3370   -1.1748 H        15        0    0.0000
     96 H          79.7758  140.1139   -1.1804 H        15        0    0.0000
     97 C          79.8156  138.2084   -0.1141 C.3      16        0    0.0000
     98 C          80.1861  138.7695    1.2632 C.3      16        0    0.0000
     99 H          78.7297  138.0688   -0.1837 H        16        0    0.0000
    100 H          80.2698  137.2193   -0.2520 H        16        0    0.0000
    101 H          79.5933  139.6679    1.4752 H        16        0    0.0000
    102 H          79.9423  138.0394    2.0448 H        16        0    0.0000
    103 C          81.7077  139.1320    1.3672 C.3      17        0    0.0000
    104 C          82.0363  139.8946    2.6555 C.3      17        0    0.0000
    105 H          82.2958  138.2072    1.3172 H        17        0    0.0000
    106 H          81.9889  139.7319    0.4928 H        17        0    0.0000
    107 H          82.9490  139.4895    3.1100 H        17        0    0.0000
    108 H          82.2389  140.9484    2.4275 H        17        0    0.0000
    109 C          80.8733  139.8190    3.7038 C.3      18        0    0.0000
    110 C          81.1533  140.6738    4.9447 C.3      18        0    0.0000
    111 H          79.9427  140.1463    3.2237 H        18        0    0.0000
    112 H          80.7264  138.7713    3.9941 H        18        0    0.0000
    113 H          80.4433  141.5087    4.9943 H        18        0    0.0000
    114 H          81.0031  140.0781    5.8536 H        18        0    0.0000
    115 C          82.6114  141.2494    4.9530 C.3      19        0    0.0000
    116 C          82.9036  142.0730    6.2120 C.3      19        0    0.0000
    117 H          83.3209  140.4162    4.8755 H        19        0    0.0000
    118 H          82.7526  141.8676    4.0578 H        19        0    0.0000
    119 H          83.9667  142.3419    6.2473 H        19        0    0.0000
    120 H          82.3413  143.0146    6.1844 H        19        0    0.0000
    121 C          82.5336  141.3018    7.5257 C.3      20        0    0.0000
    122 C          82.8594  142.1111    8.7858 C.3      20        0    0.0000
    123 H          81.4646  141.0562    7.5023 H        20        0    0.0000
    124 H          83.0757  140.3481    7.5405 H        20        0    0.0000
    125 H          82.1669  142.9568    8.8792 H        20        0    0.0000
    126 H          82.7197  141.4894    9.6788 H        20        0    0.0000
    127 C          84.3281  142.6593    8.7765 C.3      21        0    0.0000
    128 C          84.5709  143.6885    9.8859 C.3      21        0    0.0000
    129 H          85.0210  141.8160    8.8876 H        21        0    0.0000
    130 H          84.5320  143.1076    7.7962 H        21        0    0.0000
    131 H          85.5485  143.5150   10.3526 H        21        0    0.0000
    132 H          84.5997  144.6996    9.4612 H        21        0    0.0000
    133 C          83.4650  143.6379   10.9957 C.3      22        0    0.0000
    134 C          83.6973  144.6801   12.0953 C.3      22        0    0.0000
    135 H          82.4860  143.7975   10.5270 H        22        0    0.0000
    136 H          83.4458  142.6307   11.4301 H        22        0    0.0000
    137 H          83.4663  145.6837   11.7171 H        22        0    0.0000
    138 H          83.0182  144.4966   12.9371 H        22        0    0.0000
    139 C          85.1730  144.6667   12.6242 C.3      23        0    0.0000
    140 C          85.5158  145.9303   13.4210 C.3      23        0    0.0000
    141 H          85.3162  143.7771   13.2500 H        23        0    0.0000
    142 H          85.8538  144.5642   11.7702 H        23        0    0.0000
    143 H          84.8774  145.9989   14.3105 H        23        0    0.0000
    144 H          86.5514  145.8795   13.7796 H        23        0    0.0000
    145 C          85.3392  147.2352   12.5704 C.3      24        0    0.0000
    146 C          85.6616  148.5002   13.3735 C.3      24        0    0.0000
    147 H          85.9893  147.1734   11.6889 H        24        0    0.0000
    148 H          84.3078  147.2782   12.1989 H        24        0    0.0000
    149 H          85.0115  148.5620   14.2550 H        24        0    0.0000
    150 H          86.6929  148.4572   13.7450 H        24        0    0.0000
    151 H          85.5387  149.4075   12.7820 H        24        0    0.0000
    152 H          79.2798  139.7887  -40.4349 H         0        0    0.0000
@<TRIPOS>BOND
     1     1     2      1
     2     1     3      1
     3     1     4      1
     4     1   152      H
     5     2     5      1
     6     2     6      1
     7     2     7      1
     8     7     8      1
     9     7     9      1
    10     7    10      1
    11     8    11      1
    12     8    12      1
    13     8    13      1
    14    13    14      1
    15    13    15      1
    16    13    16      1
    17    14    17      1
    18    14    18      1
    19    14    19      1
    20    19    20      1
    21    19    21      1
    22    19    22      1
    23    20    23      1
    24    20    24      1
    25    20    25      1
    26    25    26      1
    27    25    27      1
    28    25    28      1
    29    26    29      1
    30    26    30      1
    31    26    31      1
    32    31    32      1
    33    31    33      1
    34    31    34      1
    35    32    35      1
    36    32    36      1
    37    32    37      1
    38    37    38      1
    39    37    39      1
    40    37    40      1
    41    38    41      1
    42    38    42      1
    43    38    43      1
    44    43    44      1
    45    43    45      1
    46    43    46      1
    47    44    47      1
    48    44    48      1
    49    44    49      1
    50    49    50      1
    51    49    51      1
    52    49    52      1
    53    50    53      1
    54    50    54      1
    55    50    55      1
    56    55    56      1
    57    55    57      1
    58    55    58      1
    59    56    59      1
    60    56    60      1
    61    56    61      1
    62    61    62      1
    63    61    63      1
    64    61    64      1
    65    62    65      1
    66    62    66      1
    67    62    67      1
    68    67    68      1
    69    67    69      1
    70    67    70      1
    71    68    71      1
    72    68    72      1
    73    68    73      1
    74    73    74      1
    75    73    75      1
    76    73    76      1
    77    74    77      1
    78    74    78      1
    79    74    79      1
    80    79    80      1
    81    79    81      1
    82    79    82      1
    83    80    83      1
    84    80    84      1
    85    80    85      1
    86    85    86      1
    87    85    87      1
    88    85    88      1
    89    86    89      1
    90    86    90      1
    91    86    91      1
    92    91    92      1
    93    91    93      1
    94    91    94      1
    95    92    95      1
    96    92    96      1
    97    92    97      1
    98    97    98      1
    99    97    99      1
   100    97   100      1
   101    98   101      1
   102    98   102      1
   103    98   103      1
   104   103   104      1
   105   103   105      1
   106   103   106      1
   107   104   107      1
   108   104   108      1
   109   104   109      1
   110   109   110      1
   111   109   111      1
   112   109   112      1
   113   110   113      1
   114   110   114      1
   115   110   115      1
   116   115   116      1
   117   115   117      1
   118   115   118      1
   119   116   119      1
   120   116   120      1
   121   116   121      1
   122   121   122      1
   123   121   123      1
   124   121   124      1
   125   122   125      1
   126   122   126      1
   127   122   127      1
   128   127   128      1
   129   127   129      1
   130   127   130      1
   131   128   131      1
   132   128   132      1
   133   128   133      1
   134   133   134      1
   135   133   135      1
   136   133   136      1
   137   134   137      1
   138   134   138      1
   139   134   139      1
   140   139   140      1
   141   139   141      1
   142   139   142      1
   143   140   143      1
   144   140   144      1
   145   140   145      1
   146   145   146      1
   147   145   147      1
   148   145   148      1
   149   146   149      1
   150   146   150      1
   151   146   151      H
