###
### Created by PolyChef-cpp17 on Thu Feb 27 19:40:28 2025
###

@<TRIPOS>MOLECULE
NO_INFO
326 325 1 0 0
SMALL
USER_CHARGES


@<TRIPOS>ATOM
      1 C          39.2798  105.1487  120.6551 C.3       0        0    0.0000
      2 C          38.4513  103.9975  120.0742 C.3       0        0    0.0000
      3 H          38.8875  106.1102  120.3015 H         0        0    0.0000
      4 H          40.3161  105.0821  120.3014 H         0        0    0.0000
      5 H          38.4066  103.1675  120.7903 H         0        0    0.0000
      6 H          37.4178  104.3250  119.9067 H         0        0    0.0000
      7 C          39.0387  103.4665  118.7212 C.3       1        0    0.0000
      8 C          39.6356  104.5899  117.8665 C.3       1        0    0.0000
      9 H          39.8050  102.7126  118.9401 H         1        0    0.0000
     10 H          38.2424  102.9545  118.1668 H         1        0    0.0000
     11 H          38.9454  105.4418  117.8297 H         1        0    0.0000
     12 H          40.5641  104.9561  118.3217 H         1        0    0.0000
     13 C          39.9410  104.1234  116.4013 C.3       2        0    0.0000
     14 C          39.8920  105.2830  115.4004 C.3       2        0    0.0000
     15 H          40.9302  103.6496  116.3800 H         2        0    0.0000
     16 H          39.2155  103.3508  116.1178 H         2        0    0.0000
     17 H          38.9757  105.8682  115.5472 H         2        0    0.0000
     18 H          40.7330  105.9657  115.5742 H         2        0    0.0000
     19 C          39.9423  104.7874  113.9140 C.3       3        0    0.0000
     20 C          39.8382  105.9429  112.9126 C.3       3        0    0.0000
     21 H          40.8777  104.2362  113.7565 H         3        0    0.0000
     22 H          39.1251  104.0738  113.7513 H         3        0    0.0000
     23 H          38.9081  106.5009  113.0774 H         3        0    0.0000
     24 H          40.6619  106.6507  113.0680 H         3        0    0.0000
     25 C          39.8727  105.4459  111.4262 C.3       4        0    0.0000
     26 C          39.8893  106.6069  110.4258 C.3       4        0    0.0000
     27 H          40.7589  104.8149  111.2849 H         4        0    0.0000
     28 H          38.9991  104.8070  111.2466 H         4        0    0.0000
     29 H          38.9925  107.2258  110.5529 H         4        0    0.0000
     30 H          40.7511  107.2576  110.6189 H         4        0    0.0000
     31 C          39.9540  106.1102  108.9403 C.3       5        0    0.0000
     32 C          38.8992  106.7842  108.0560 C.3       5        0    0.0000
     33 H          40.9581  106.3076  108.5449 H         5        0    0.0000
     34 H          39.8178  105.0218  108.9252 H         5        0    0.0000
     35 H          37.9421  106.8414  108.5893 H         5        0    0.0000
     36 H          39.1981  107.8161  107.8339 H         5        0    0.0000
     37 C          38.6800  106.0198  106.7051 C.3       6        0    0.0000
     38 C          39.0429  106.8767  105.4873 C.3       6        0    0.0000
     39 H          39.2847  105.1045  106.7146 H         6        0    0.0000
     40 H          37.6312  105.7039  106.6436 H         6        0    0.0000
     41 H          38.1676  107.4489  105.1557 H         6        0    0.0000
     42 H          39.8135  107.6089  105.7587 H         6        0    0.0000
     43 C          39.5662  106.0134  104.2880 C.3       7        0    0.0000
     44 C          39.0051  106.4873  102.9428 C.3       7        0    0.0000
     45 H          40.6624  106.0552  104.2740 H         7        0    0.0000
     46 H          39.2931  104.9651  104.4613 H         7        0    0.0000
     47 H          37.9201  106.6311  103.0175 H         7        0    0.0000
     48 H          39.4345  107.4615  102.6783 H         7        0    0.0000
     49 C          39.3019  105.4731  101.7849 C.3       8        0    0.0000
     50 C          39.1316  106.1068  100.3998 C.3       8        0    0.0000
     51 H          40.3243  105.0927  101.9014 H         8        0    0.0000
     52 H          38.6313  104.6112  101.8892 H         8        0    0.0000
     53 H          38.0894  106.4169  100.2536 H         8        0    0.0000
     54 H          39.7438  107.0139  100.3233 H         8        0    0.0000
     55 C          39.5339  105.1266   99.2444 C.3       9        0    0.0000
     56 C          39.3010  105.7365   97.8578 C.3       9        0    0.0000
     57 H          40.5901  104.8547   99.3632 H         9        0    0.0000
     58 H          38.9563  104.2000   99.3497 H         9        0    0.0000
     59 H          38.2477  106.0214   97.7442 H         9        0    0.0000
     60 H          39.8896  106.6557   97.7474 H         9        0    0.0000
     61 C          39.6848  104.7490   96.7023 C.3      10        0    0.0000
     62 C          39.4430  105.3555   95.3157 C.3      10        0    0.0000
     63 H          40.7400  104.4695   96.8119 H        10        0    0.0000
     64 H          39.1012  103.8271   96.8167 H        10        0    0.0000
     65 H          38.3876  105.6339   95.2057 H        10        0    0.0000
     66 H          40.0257  106.2780   95.2018 H        10        0    0.0000
     67 C          39.8283  104.3686   94.1602 C.3      11        0    0.0000
     68 C          39.5879  104.9756   92.7736 C.3      11        0    0.0000
     69 H          40.8834  104.0893   94.2709 H        11        0    0.0000
     70 H          39.2448  103.4465   94.2735 H        11        0    0.0000
     71 H          38.5330  105.2561   92.6635 H        11        0    0.0000
     72 H          40.1724  105.8970   92.6598 H        11        0    0.0000
     73 C          39.9714  103.9880   91.6181 C.3      12        0    0.0000
     74 C          39.7368  104.5973   90.2315 C.3      12        0    0.0000
     75 H          41.0251  103.7040   91.7308 H        12        0    0.0000
     76 H          39.3836  103.0684   91.7293 H        12        0    0.0000
     77 H          38.6827  104.8794   90.1180 H        12        0    0.0000
     78 H          40.3229  105.5180   90.1211 H        12        0    0.0000
     79 C          40.1231  103.6108   89.0760 C.3      13        0    0.0000
     80 C          39.8839  104.2183   87.6894 C.3      13        0    0.0000
     81 H          41.1782  103.3316   89.1874 H        13        0    0.0000
     82 H          39.5396  102.6886   89.1885 H        13        0    0.0000
     83 H          38.8279  104.4931   87.5762 H        13        0    0.0000
     84 H          40.4637  105.1430   87.5787 H        13        0    0.0000
     85 C          40.2765  103.2343   86.5339 C.3      14        0    0.0000
     86 C          40.0350  103.8408   85.1473 C.3      14        0    0.0000
     87 H          41.3330  102.9608   86.6461 H        14        0    0.0000
     88 H          39.6980  102.3089   86.6456 H        14        0    0.0000
     89 H          38.9725  104.0841   85.0229 H        14        0    0.0000
     90 H          40.5877  104.7832   85.0475 H        14        0    0.0000
     91 C          40.4708  102.8748   83.9921 C.3      15        0    0.0000
     92 C          40.2309  103.4820   82.6055 C.3      15        0    0.0000
     93 H          41.5330  102.6305   84.1172 H        15        0    0.0000
     94 H          39.9172  101.9328   84.0912 H        15        0    0.0000
     95 H          39.2112  103.8814   82.5410 H        15        0    0.0000
     96 H          40.9111  104.3271   82.4422 H        15        0    0.0000
     97 C          40.4380  102.4371   81.4554 C.3      16        0    0.0000
     98 C          40.1829  103.0403   80.0697 C.3      16        0    0.0000
     99 H          41.4614  102.0462   81.5129 H        16        0    0.0000
    100 H          39.7659  101.5868   81.6251 H        16        0    0.0000
    101 H          40.9919  103.7328   79.8062 H        16        0    0.0000
    102 H          40.1847  102.2497   79.3092 H        16        0    0.0000
    103 C          38.8176  103.8074   79.9979 C.3      17        0    0.0000
    104 C          38.5966  104.4734   78.6353 C.3      17        0    0.0000
    105 H          38.0042  103.1020   80.2082 H        17        0    0.0000
    106 H          38.7938  104.5621   80.7937 H        17        0    0.0000
    107 H          37.5521  104.7945   78.5386 H        17        0    0.0000
    108 H          39.2129  105.3773   78.5540 H        17        0    0.0000
    109 C          38.9434  103.5164   77.4431 C.3      18        0    0.0000
    110 C          38.8302  104.2166   76.0844 C.3      18        0    0.0000
    111 H          39.9607  103.1306   77.5838 H        18        0    0.0000
    112 H          38.2706  102.6506   77.4773 H        18        0    0.0000
    113 H          39.7152  104.8405   75.9078 H        18        0    0.0000
    114 H          38.8036  103.4724   75.2788 H        18        0    0.0000
    115 C          37.5500  105.1157   75.9843 C.3      19        0    0.0000
    116 C          37.6665  106.1713   74.8791 C.3      19        0    0.0000
    117 H          36.6801  104.4731   75.8004 H        19        0    0.0000
    118 H          37.3830  105.6024   76.9532 H        19        0    0.0000
    119 H          38.7221  106.3505   74.6400 H        19        0    0.0000
    120 H          37.1926  105.8067   73.9593 H        19        0    0.0000
    121 C          37.0022  107.5320   75.2848 C.3      20        0    0.0000
    122 C          37.1475  108.5976   74.1929 C.3      20        0    0.0000
    123 H          35.9409  107.3569   75.5006 H        20        0    0.0000
    124 H          37.4594  107.8845   76.2177 H        20        0    0.0000
    125 H          38.1187  108.4943   73.6932 H        20        0    0.0000
    126 H          36.3799  108.4538   73.4224 H        20        0    0.0000
    127 C          37.0249  110.0528   74.7628 C.3      21        0    0.0000
    128 C          37.4140  111.1160   73.7297 C.3      21        0    0.0000
    129 H          35.9934  110.2150   75.0994 H        21        0    0.0000
    130 H          37.6633  110.1398   75.6508 H        21        0    0.0000
    131 H          37.3517  110.6975   72.7175 H        21        0    0.0000
    132 H          36.7072  111.9542   73.7681 H        21        0    0.0000
    133 C          38.8635  111.6664   73.9606 C.3      22        0    0.0000
    134 C          39.4893  112.2130   72.6727 C.3      22        0    0.0000
    135 H          38.8255  112.4535   74.7238 H        22        0    0.0000
    136 H          39.4866  110.8612   74.3692 H        22        0    0.0000
    137 H          39.2304  111.5666   71.8249 H        22        0    0.0000
    138 H          39.0807  113.2060   72.4480 H        22        0    0.0000
    139 C          41.0504  112.3189   72.7691 C.3      23        0    0.0000
    140 C          41.6996  112.5865   71.4068 C.3      23        0    0.0000
    141 H          41.3076  113.1206   73.4724 H        23        0    0.0000
    142 H          41.4422  111.3874   73.1961 H        23        0    0.0000
    143 H          41.3890  111.8209   70.6851 H        23        0    0.0000
    144 H          41.3579  113.5505   71.0101 H        23        0    0.0000
    145 C          43.2652  112.5995   71.4871 C.3      24        0    0.0000
    146 C          43.9161  112.0037   70.2340 C.3      24        0    0.0000
    147 H          43.6032  113.6332   71.6313 H        24        0    0.0000
    148 H          43.5783  112.0387   72.3765 H        24        0    0.0000
    149 H          43.4043  111.0761   69.9491 H        24        0    0.0000
    150 H          43.8082  112.6952   69.3891 H        24        0    0.0000
    151 C          45.4388  111.6966   70.4443 C.3      25        0    0.0000
    152 C          45.8494  110.3509   69.8363 C.3      25        0    0.0000
    153 H          46.0280  112.5068   69.9972 H        25        0    0.0000
    154 H          45.6561  111.7054   71.5196 H        25        0    0.0000
    155 H          44.9663  109.7143   69.7008 H        25        0    0.0000
    156 H          46.2826  110.5048   68.8402 H        25        0    0.0000
    157 C          46.8897  109.5889   70.7276 C.3      26        0    0.0000
    158 C          48.3359  109.8956   70.3235 C.3      26        0    0.0000
    159 H          46.7257  109.8647   71.7767 H        26        0    0.0000
    160 H          46.6983  108.5113   70.6516 H        26        0    0.0000
    161 H          48.9319  108.9746   70.3306 H        26        0    0.0000
    162 H          48.3658  110.2823   69.2973 H        26        0    0.0000
    163 C          49.0103  110.9412   71.2772 C.3      27        0    0.0000
    164 C          50.2645  110.3821   71.9580 C.3      27        0    0.0000
    165 H          49.2648  111.8366   70.6968 H        27        0    0.0000
    166 H          48.2792  111.2532   72.0333 H        27        0    0.0000
    167 H          50.6475  109.5229   71.3936 H        27        0    0.0000
    168 H          51.0599  111.1376   71.9600 H        27        0    0.0000
    169 C          49.9892  109.9344   73.4349 C.3      28        0    0.0000
    170 C          51.1990  110.1655   74.3470 C.3      28        0    0.0000
    171 H          49.1204  110.4858   73.8155 H        28        0    0.0000
    172 H          49.7139  108.8724   73.4370 H        28        0    0.0000
    173 H          51.9846  109.4333   74.1227 H        28        0    0.0000
    174 H          51.6290  111.1568   74.1576 H        28        0    0.0000
    175 C          50.8270  110.0579   75.8661 C.3      29        0    0.0000
    176 C          51.9667  110.5260   76.7777 C.3      29        0    0.0000
    177 H          49.9263  110.6558   76.0527 H        29        0    0.0000
    178 H          50.5668  109.0167   76.0935 H        29        0    0.0000
    179 H          52.5486  109.6634   77.1254 H        29        0    0.0000
    180 H          52.6580  111.1670   76.2168 H        29        0    0.0000
    181 C          51.4427  111.3179   78.0250 C.3      30        0    0.0000
    182 C          52.3053  112.5454   78.3381 C.3      30        0    0.0000
    183 H          50.4058  111.6242   77.8393 H        30        0    0.0000
    184 H          51.4216  110.6426   78.8894 H        30        0    0.0000
    185 H          53.0335  112.3035   79.1221 H        30        0    0.0000
    186 H          52.8820  112.8360   77.4512 H        30        0    0.0000
    187 C          51.4471  113.7708   78.8064 C.3      31        0    0.0000
    188 C          52.2568  115.0719   78.8304 C.3      31        0    0.0000
    189 H          50.5855  113.8763   78.1355 H        31        0    0.0000
    190 H          51.0447  113.5597   79.8050 H        31        0    0.0000
    191 H          53.0655  114.9981   79.5680 H        31        0    0.0000
    192 H          52.7333  115.2364   77.8560 H        31        0    0.0000
    193 C          51.3699  116.3175   79.1758 C.3      32        0    0.0000
    194 C          52.1308  117.6371   79.0072 C.3      32        0    0.0000
    195 H          50.4827  116.3097   78.5305 H        32        0    0.0000
    196 H          51.0098  116.2200   80.2075 H        32        0    0.0000
    197 H          53.0114  117.6499   79.6614 H        32        0    0.0000
    198 H          52.5012  117.7290   77.9786 H        32        0    0.0000
    199 C          51.2388  118.8835   79.3363 C.3      33        0    0.0000
    200 C          52.0139  119.9697   80.0902 C.3      33        0    0.0000
    201 H          50.8383  119.2891   78.3989 H        33        0    0.0000
    202 H          50.3774  118.5548   79.9308 H        33        0    0.0000
    203 H          52.6992  119.5099   80.8130 H        33        0    0.0000
    204 H          52.6333  120.5443   79.3903 H        33        0    0.0000
    205 C          51.0640  120.9571   80.8520 C.3      34        0    0.0000
    206 C          51.6061  121.3334   82.2354 C.3      34        0    0.0000
    207 H          50.9294  121.8593   80.2426 H        34        0    0.0000
    208 H          50.0751  120.4921   80.9492 H        34        0    0.0000
    209 H          52.3377  120.5869   82.5685 H        34        0    0.0000
    210 H          52.1359  122.2926   82.1836 H        34        0    0.0000
    211 C          50.4695  121.4412   83.3096 C.3      35        0    0.0000
    212 C          51.0065  121.3081   84.7389 C.3      35        0    0.0000
    213 H          49.9583  122.4043   83.1880 H        35        0    0.0000
    214 H          49.7229  120.6615   83.1141 H        35        0    0.0000
    215 H          51.6021  120.3916   84.8330 H        35        0    0.0000
    216 H          51.6778  122.1450   84.9680 H        35        0    0.0000
    217 C          49.8574  121.2756   85.8047 C.3      36        0    0.0000
    218 C          50.3965  121.2340   87.2389 C.3      36        0    0.0000
    219 H          49.2223  122.1595   85.6670 H        36        0    0.0000
    220 H          49.2242  120.4000   85.6154 H        36        0    0.0000
    221 H          50.9794  120.3179   87.3952 H        36        0    0.0000
    222 H          51.0800  122.0752   87.4083 H        36        0    0.0000
    223 C          49.2499  121.2918   88.3064 C.3      37        0    0.0000
    224 C          49.7891  121.2533   89.7405 C.3      37        0    0.0000
    225 H          48.6656  122.2067   88.1486 H        37        0    0.0000
    226 H          48.5676  120.4493   88.1383 H        37        0    0.0000
    227 H          50.3533  120.3270   89.9056 H        37        0    0.0000
    228 H          50.4899  122.0819   89.9013 H        37        0    0.0000
    229 C          48.6448  121.3450   90.8081 C.3      38        0    0.0000
    230 C          49.1838  121.3048   92.2423 C.3      38        0    0.0000
    231 H          48.0814  122.2720   90.6438 H        38        0    0.0000
    232 H          47.9433  120.5172   90.6465 H        38        0    0.0000
    233 H          49.6905  122.2483   92.4803 H        38        0    0.0000
    234 H          48.3544  121.2046   92.9532 H        38        0    0.0000
    235 C          50.1875  120.1217   92.4668 C.3      39        0    0.0000
    236 C          50.7093  120.0680   93.9069 C.3      39        0    0.0000
    237 H          49.6859  119.1796   92.2130 H        39        0    0.0000
    238 H          51.0252  120.2310   91.7669 H        39        0    0.0000
    239 H          50.4392  119.1105   94.3694 H        39        0    0.0000
    240 H          51.8050  120.1225   93.9122 H        39        0    0.0000
    241 C          50.1412  121.2331   94.7885 C.3      40        0    0.0000
    242 C          50.4232  121.0233   96.2803 C.3      40        0    0.0000
    243 H          50.5828  122.1791   94.4515 H        40        0    0.0000
    244 H          49.0604  121.3113   94.6173 H        40        0    0.0000
    245 H          50.4790  119.9511   96.5054 H        40        0    0.0000
    246 H          51.3986  121.4514   96.5425 H        40        0    0.0000
    247 C          49.3247  121.6741   97.1898 C.3      41        0    0.0000
    248 C          49.6147  121.4773   98.6819 C.3      41        0    0.0000
    249 H          49.2613  122.7443   96.9569 H        41        0    0.0000
    250 H          48.3508  121.2380   96.9352 H        41        0    0.0000
    251 H          49.0765  120.5980   99.0569 H        41        0    0.0000
    252 H          50.6832  121.2816   98.8348 H        41        0    0.0000
    253 C          49.2020  122.7248   99.5369 C.3      42        0    0.0000
    254 C          49.4454  122.5088  101.0346 C.3      42        0    0.0000
    255 H          49.7676  123.5968   99.1858 H        42        0    0.0000
    256 H          48.1423  122.9429   99.3556 H        42        0    0.0000
    257 H          50.5225  122.4930  101.2422 H        42        0    0.0000
    258 H          49.0262  123.3447  101.6082 H        42        0    0.0000
    259 C          48.8114  121.1720  101.5527 C.3      43        0    0.0000
    260 C          49.2695  120.8242  102.9734 C.3      43        0    0.0000
    261 H          47.7186  121.2637  101.5218 H        43        0    0.0000
    262 H          49.0793  120.3626  100.8624 H        43        0    0.0000
    263 H          48.4401  120.3810  103.5382 H        43        0    0.0000
    264 H          50.0652  120.0698  102.9379 H        43        0    0.0000
    265 C          49.7970  122.0788  103.7513 C.3      44        0    0.0000
    266 C          50.0793  121.7715  105.2261 C.3      44        0    0.0000
    267 H          50.7093  122.4410  103.2613 H        44        0    0.0000
    268 H          49.0552  122.8830  103.6700 H        44        0    0.0000
    269 H          50.8956  121.0432  105.3090 H        44        0    0.0000
    270 H          50.4140  122.6798  105.7423 H        44        0    0.0000
    271 C          48.8192  121.2046  105.9666 C.3      45        0    0.0000
    272 C          49.0701  120.9971  107.4642 C.3      45        0    0.0000
    273 H          47.9808  121.8963  105.8179 H        45        0    0.0000
    274 H          48.5312  120.2552  105.4983 H        45        0    0.0000
    275 H          48.1410  120.6941  107.9628 H        45        0    0.0000
    276 H          49.7891  120.1825  107.6159 H        45        0    0.0000
    277 C          49.6180  122.2907  108.1597 C.3      46        0    0.0000
    278 C          50.0042  122.0447  109.6224 C.3      46        0    0.0000
    279 H          50.4872  122.6535  107.5971 H        46        0    0.0000
    280 H          48.8538  123.0755  108.0993 H        46        0    0.0000
    281 H          50.9981  121.5834  109.6765 H        46        0    0.0000
    282 H          50.0701  122.9989  110.1596 H        46        0    0.0000
    283 C          48.9767  121.1191  110.3605 C.3      47        0    0.0000
    284 C          49.3336  120.9168  111.8372 C.3      47        0    0.0000
    285 H          47.9762  121.5605  110.2723 H        47        0    0.0000
    286 H          48.9402  120.1507  109.8463 H        47        0    0.0000
    287 H          48.5284  120.3742  112.3479 H        47        0    0.0000
    288 H          50.2354  120.2983  111.9250 H        47        0    0.0000
    289 C          49.5782  122.2751  112.5807 C.3      48        0    0.0000
    290 C          49.9278  122.0732  114.0593 C.3      48        0    0.0000
    291 H          50.3870  122.8153  112.0733 H        48        0    0.0000
    292 H          48.6784  122.8958  112.4883 H        48        0    0.0000
    293 H          50.9393  121.6590  114.1535 H        48        0    0.0000
    294 H          49.9330  123.0388  114.5799 H        48        0    0.0000
    295 C          48.9200  121.1147  114.7825 C.3      49        0    0.0000
    296 C          49.2797  120.8988  116.2567 C.3      49        0    0.0000
    297 H          47.9102  121.5354  114.6995 H        49        0    0.0000
    298 H          48.9051  120.1534  114.2542 H        49        0    0.0000
    299 H          48.4630  120.3769  116.7706 H        49        0    0.0000
    300 H          50.1647  120.2556  116.3376 H        49        0    0.0000
    301 C          49.5655  122.2479  117.0022 C.3      50        0    0.0000
    302 C          50.0085  122.0273  118.4528 C.3      50        0    0.0000
    303 H          50.3387  122.7987  116.4524 H        50        0    0.0000
    304 H          48.6593  122.8656  116.9754 H        50        0    0.0000
    305 H          51.0410  122.3727  118.5875 H        50        0    0.0000
    306 H          49.3858  122.6237  119.1310 H        50        0    0.0000
    307 C          49.9200  120.5212  118.8785 C.3      51        0    0.0000
    308 C          50.1335  120.3297  120.3841 C.3      51        0    0.0000
    309 H          48.9389  120.1278  118.5847 H        51        0    0.0000
    310 H          50.6695  119.9503  118.3167 H        51        0    0.0000
    311 H          49.1800  120.0923  120.8721 H        51        0    0.0000
    312 H          50.8003  119.4774  120.5641 H        51        0    0.0000
    313 C          50.7458  121.6026  121.0640 C.3      52        0    0.0000
    314 C          50.8621  121.4499  122.5846 C.3      52        0    0.0000
    315 H          51.7342  121.7952  120.6286 H        52        0    0.0000
    316 H          50.1197  122.4697  120.8198 H        52        0    0.0000
    317 H          51.6181  120.6937  122.8299 H        52        0    0.0000
    318 H          51.2021  122.3920  123.0323 H        52        0    0.0000
    319 C          49.5020  121.0378  123.2460 C.3      53        0    0.0000
    320 C          49.0729  122.0131  124.3478 C.3      53        0    0.0000
    321 H          48.7310  120.9873  122.4672 H        53        0    0.0000
    322 H          49.6011  120.0256  123.6573 H        53        0    0.0000
    323 H          49.8439  122.0636  125.1266 H        53        0    0.0000
    324 H          48.9738  123.0253  123.9365 H        53        0    0.0000
    325 H          48.1271  121.7265  124.8078 H        53        0    0.0000
    326 H          39.2798  105.1487  121.7450 H         0        0    0.0000
@<TRIPOS>BOND
     1     1     2      1
     2     1     3      1
     3     1     4      1
     4     1   326      H
     5     2     5      1
     6     2     6      1
     7     2     7      1
     8     7     8      1
     9     7     9      1
    10     7    10      1
    11     8    11      1
    12     8    12      1
    13     8    13      1
    14    13    14      1
    15    13    15      1
    16    13    16      1
    17    14    17      1
    18    14    18      1
    19    14    19      1
    20    19    20      1
    21    19    21      1
    22    19    22      1
    23    20    23      1
    24    20    24      1
    25    20    25      1
    26    25    26      1
    27    25    27      1
    28    25    28      1
    29    26    29      1
    30    26    30      1
    31    26    31      1
    32    31    32      1
    33    31    33      1
    34    31    34      1
    35    32    35      1
    36    32    36      1
    37    32    37      1
    38    37    38      1
    39    37    39      1
    40    37    40      1
    41    38    41      1
    42    38    42      1
    43    38    43      1
    44    43    44      1
    45    43    45      1
    46    43    46      1
    47    44    47      1
    48    44    48      1
    49    44    49      1
    50    49    50      1
    51    49    51      1
    52    49    52      1
    53    50    53      1
    54    50    54      1
    55    50    55      1
    56    55    56      1
    57    55    57      1
    58    55    58      1
    59    56    59      1
    60    56    60      1
    61    56    61      1
    62    61    62      1
    63    61    63      1
    64    61    64      1
    65    62    65      1
    66    62    66      1
    67    62    67      1
    68    67    68      1
    69    67    69      1
    70    67    70      1
    71    68    71      1
    72    68    72      1
    73    68    73      1
    74    73    74      1
    75    73    75      1
    76    73    76      1
    77    74    77      1
    78    74    78      1
    79    74    79      1
    80    79    80      1
    81    79    81      1
    82    79    82      1
    83    80    83      1
    84    80    84      1
    85    80    85      1
    86    85    86      1
    87    85    87      1
    88    85    88      1
    89    86    89      1
    90    86    90      1
    91    86    91      1
    92    91    92      1
    93    91    93      1
    94    91    94      1
    95    92    95      1
    96    92    96      1
    97    92    97      1
    98    97    98      1
    99    97    99      1
   100    97   100      1
   101    98   101      1
   102    98   102      1
   103    98   103      1
   104   103   104      1
   105   103   105      1
   106   103   106      1
   107   104   107      1
   108   104   108      1
   109   104   109      1
   110   109   110      1
   111   109   111      1
   112   109   112      1
   113   110   113      1
   114   110   114      1
   115   110   115      1
   116   115   116      1
   117   115   117      1
   118   115   118      1
   119   116   119      1
   120   116   120      1
   121   116   121      1
   122   121   122      1
   123   121   123      1
   124   121   124      1
   125   122   125      1
   126   122   126      1
   127   122   127      1
   128   127   128      1
   129   127   129      1
   130   127   130      1
   131   128   131      1
   132   128   132      1
   133   128   133      1
   134   133   134      1
   135   133   135      1
   136   133   136      1
   137   134   137      1
   138   134   138      1
   139   134   139      1
   140   139   140      1
   141   139   141      1
   142   139   142      1
   143   140   143      1
   144   140   144      1
   145   140   145      1
   146   145   146      1
   147   145   147      1
   148   145   148      1
   149   146   149      1
   150   146   150      1
   151   146   151      1
   152   151   152      1
   153   151   153      1
   154   151   154      1
   155   152   155      1
   156   152   156      1
   157   152   157      1
   158   157   158      1
   159   157   159      1
   160   157   160      1
   161   158   161      1
   162   158   162      1
   163   158   163      1
   164   163   164      1
   165   163   165      1
   166   163   166      1
   167   164   167      1
   168   164   168      1
   169   164   169      1
   170   169   170      1
   171   169   171      1
   172   169   172      1
   173   170   173      1
   174   170   174      1
   175   170   175      1
   176   175   176      1
   177   175   177      1
   178   175   178      1
   179   176   179      1
   180   176   180      1
   181   176   181      1
   182   181   182      1
   183   181   183      1
   184   181   184      1
   185   182   185      1
   186   182   186      1
   187   182   187      1
   188   187   188      1
   189   187   189      1
   190   187   190      1
   191   188   191      1
   192   188   192      1
   193   188   193      1
   194   193   194      1
   195   193   195      1
   196   193   196      1
   197   194   197      1
   198   194   198      1
   199   194   199      1
   200   199   200      1
   201   199   201      1
   202   199   202      1
   203   200   203      1
   204   200   204      1
   205   200   205      1
   206   205   206      1
   207   205   207      1
   208   205   208      1
   209   206   209      1
   210   206   210      1
   211   206   211      1
   212   211   212      1
   213   211   213      1
   214   211   214      1
   215   212   215      1
   216   212   216      1
   217   212   217      1
   218   217   218      1
   219   217   219      1
   220   217   220      1
   221   218   221      1
   222   218   222      1
   223   218   223      1
   224   223   224      1
   225   223   225      1
   226   223   226      1
   227   224   227      1
   228   224   228      1
   229   224   229      1
   230   229   230      1
   231   229   231      1
   232   229   232      1
   233   230   233      1
   234   230   234      1
   235   230   235      1
   236   235   236      1
   237   235   237      1
   238   235   238      1
   239   236   239      1
   240   236   240      1
   241   236   241      1
   242   241   242      1
   243   241   243      1
   244   241   244      1
   245   242   245      1
   246   242   246      1
   247   242   247      1
   248   247   248      1
   249   247   249      1
   250   247   250      1
   251   248   251      1
   252   248   252      1
   253   248   253      1
   254   253   254      1
   255   253   255      1
   256   253   256      1
   257   254   257      1
   258   254   258      1
   259   254   259      1
   260   259   260      1
   261   259   261      1
   262   259   262      1
   263   260   263      1
   264   260   264      1
   265   260   265      1
   266   265   266      1
   267   265   267      1
   268   265   268      1
   269   266   269      1
   270   266   270      1
   271   266   271      1
   272   271   272      1
   273   271   273      1
   274   271   274      1
   275   272   275      1
   276   272   276      1
   277   272   277      1
   278   277   278      1
   279   277   279      1
   280   277   280      1
   281   278   281      1
   282   278   282      1
   283   278   283      1
   284   283   284      1
   285   283   285      1
   286   283   286      1
   287   284   287      1
   288   284   288      1
   289   284   289      1
   290   289   290      1
   291   289   291      1
   292   289   292      1
   293   290   293      1
   294   290   294      1
   295   290   295      1
   296   295   296      1
   297   295   297      1
   298   295   298      1
   299   296   299      1
   300   296   300      1
   301   296   301      1
   302   301   302      1
   303   301   303      1
   304   301   304      1
   305   302   305      1
   306   302   306      1
   307   302   307      1
   308   307   308      1
   309   307   309      1
   310   307   310      1
   311   308   311      1
   312   308   312      1
   313   308   313      1
   314   313   314      1
   315   313   315      1
   316   313   316      1
   317   314   317      1
   318   314   318      1
   319   314   319      1
   320   319   320      1
   321   319   321      1
   322   319   322      1
   323   320   323      1
   324   320   324      1
   325   320   325      H
