###
### Created by PolyChef-cpp17 on Thu Feb 27 19:40:28 2025
###

@<TRIPOS>MOLECULE
NO_INFO
302 301 1 0 0
SMALL
USER_CHARGES


@<TRIPOS>ATOM
      1 C         179.2798   70.5087  -39.3449 C.3       0        0    0.0000
      2 C         177.8706   70.3482  -38.7641 C.3       0        0    0.0000
      3 H         179.9271   69.6966  -38.9913 H         0        0    0.0000
      4 H         179.7280   71.4455  -38.9913 H         0        0    0.0000
      5 H         177.3719   71.3240  -38.7117 H         0        0    0.0000
      6 H         177.2613   69.7181  -39.4238 H         0        0    0.0000
      7 C         177.8874   69.7118  -37.3316 C.3       1        0    0.0000
      8 C         179.1652   70.0556  -36.5582 C.3       1        0    0.0000
      9 H         177.0072   70.0624  -36.7785 H         1        0    0.0000
     10 H         177.7867   68.6235  -37.4269 H         1        0    0.0000
     11 H         180.0454   69.8793  -37.1888 H         1        0    0.0000
     12 H         179.1723   71.1214  -36.2982 H         1        0    0.0000
     13 C         179.3087   69.2138  -35.2436 C.3       2        0    0.0000
     14 C         180.2067   69.9008  -34.2090 C.3       2        0    0.0000
     15 H         178.3103   69.0442  -34.8216 H         2        0    0.0000
     16 H         179.7149   68.2270  -35.4982 H         2        0    0.0000
     17 H         181.2612   69.7799  -34.4867 H         2        0    0.0000
     18 H         180.0065   70.9793  -34.1942 H         2        0    0.0000
     19 C         179.9957   69.3279  -32.7652 C.3       3        0    0.0000
     20 C         180.6194   70.2225  -31.6883 C.3       3        0    0.0000
     21 H         178.9197   69.2148  -32.5834 H         3        0    0.0000
     22 H         180.4307   68.3219  -32.7168 H         3        0    0.0000
     23 H         181.7084   70.2607  -31.8155 H         3        0    0.0000
     24 H         180.2534   71.2511  -31.7954 H         3        0    0.0000
     25 C         180.2975   69.7199  -30.2387 C.3       4        0    0.0000
     26 C         180.8928   70.6334  -29.1616 C.3       4        0    0.0000
     27 H         179.2086   69.6581  -30.1197 H         4        0    0.0000
     28 H         180.6854   68.7002  -30.1237 H         4        0    0.0000
     29 H         181.9826   70.6882  -29.2753 H         4        0    0.0000
     30 H         180.5118   71.6551  -29.2822 H         4        0    0.0000
     31 C         180.5602   70.1378  -27.7121 C.3       5        0    0.0000
     32 C         181.1774   71.0366  -26.6350 C.3       5        0    0.0000
     33 H         179.4703   70.1012  -27.5923 H         5        0    0.0000
     34 H         180.9244   69.1093  -27.5978 H         5        0    0.0000
     35 H         182.2669   71.0764  -26.7572 H         5        0    0.0000
     36 H         180.8102   72.0643  -26.7468 H         5        0    0.0000
     37 C         180.8495   70.5378  -25.1854 C.3       6        0    0.0000
     38 C         181.4217   71.4660  -24.1084 C.3       6        0    0.0000
     39 H         179.7606   70.4609  -25.0759 H         6        0    0.0000
     40 H         181.2511   69.5246  -25.0609 H         6        0    0.0000
     41 H         182.5112   71.5385  -24.2145 H         6        0    0.0000
     42 H         181.0246   72.4806  -24.2364 H         6        0    0.0000
     43 C         181.0870   70.9715  -22.6590 C.3       7        0    0.0000
     44 C         182.1703   71.3618  -21.6474 C.3       7        0    0.0000
     45 H         180.1203   71.3927  -22.3561 H         7        0    0.0000
     46 H         180.9640   69.8815  -22.6768 H         7        0    0.0000
     47 H         183.1553   71.0414  -22.0088 H         7        0    0.0000
     48 H         182.2125   72.4531  -21.5436 H         7        0    0.0000
     49 C         181.9199   70.7292  -20.2351 C.3       8        0    0.0000
     50 C         181.9254   71.7796  -19.1189 C.3       8        0    0.0000
     51 H         180.9586   70.2008  -20.2497 H         8        0    0.0000
     52 H         182.6919   69.9735  -20.0443 H         8        0    0.0000
     53 H         182.9573   72.0285  -18.8418 H         8        0    0.0000
     54 H         181.4619   72.7083  -19.4741 H         8        0    0.0000
     55 C         181.1624   71.2911  -17.8397 C.3       9        0    0.0000
     56 C         182.0332   71.3641  -16.5806 C.3       9        0    0.0000
     57 H         180.2614   71.9034  -17.7099 H         9        0    0.0000
     58 H         180.8223   70.2609  -18.0026 H         9        0    0.0000
     59 H         183.0477   71.0113  -16.8039 H         9        0    0.0000
     60 H         182.1277   72.4054  -16.2484 H         9        0    0.0000
     61 C         181.4488   70.5094  -15.4036 C.3      10        0    0.0000
     62 C         181.7577   71.1207  -14.0325 C.3      10        0    0.0000
     63 H         180.3639   70.4170  -15.5384 H        10        0    0.0000
     64 H         181.8613   69.4947  -15.4646 H        10        0    0.0000
     65 H         182.8360   71.0761  -13.8351 H        10        0    0.0000
     66 H         181.4793   72.1819  -14.0225 H        10        0    0.0000
     67 C         181.0007   70.3887  -12.8713 C.3      11        0    0.0000
     68 C         181.4639   70.8595  -11.4883 C.3      11        0    0.0000
     69 H         179.9236   70.5625  -12.9866 H        11        0    0.0000
     70 H         181.1580   69.3077  -12.9729 H        11        0    0.0000
     71 H         182.5480   70.7242  -11.3885 H        11        0    0.0000
     72 H         181.2683   71.9327  -11.3713 H        11        0    0.0000
     73 C         180.7492   70.0860  -10.3272 C.3      12        0    0.0000
     74 C         181.2017   70.5669   -8.9441 C.3      12        0    0.0000
     75 H         179.6646   70.2125  -10.4331 H        12        0    0.0000
     76 H         180.9536   69.0139  -10.4381 H        12        0    0.0000
     77 H         182.2855   70.4353   -8.8361 H        12        0    0.0000
     78 H         181.0023   71.6402   -8.8351 H        12        0    0.0000
     79 C         180.4813   69.7987   -7.7829 C.3      13        0    0.0000
     80 C         180.9426   70.2714   -6.3998 C.3      13        0    0.0000
     81 H         179.3979   69.9375   -7.8858 H        13        0    0.0000
     82 H         180.6735   68.7247   -7.8968 H        13        0    0.0000
     83 H         182.0268   70.1379   -6.2990 H        13        0    0.0000
     84 H         180.7451   71.3442   -6.2837 H        13        0    0.0000
     85 C         180.2281   69.4976   -5.2387 C.3      14        0    0.0000
     86 C         180.7210   69.9397   -3.8565 C.3      14        0    0.0000
     87 H         179.1458   69.6572   -5.3209 H        14        0    0.0000
     88 H         180.3990   68.4222   -5.3728 H        14        0    0.0000
     89 H         181.8071   69.8031   -3.7830 H        14        0    0.0000
     90 H         180.5278   71.0100   -3.7129 H        14        0    0.0000
     91 C         180.0317   69.1417   -2.6966 C.3      15        0    0.0000
     92 C         180.4325   69.6653   -1.3130 C.3      15        0    0.0000
     93 H         178.9436   69.2048   -2.8219 H        15        0    0.0000
     94 H         180.2986   68.0816   -2.7894 H        15        0    0.0000
     95 H         181.4734   69.3954   -1.0958 H        15        0    0.0000
     96 H         180.3812   70.7611   -1.2962 H        15        0    0.0000
     97 C         179.5155   69.0989   -0.1748 C.3      16        0    0.0000
     98 C         179.7154   69.8368    1.1535 C.3      16        0    0.0000
     99 H         178.4685   69.1750   -0.4935 H        16        0    0.0000
    100 H         179.7291   68.0304   -0.0474 H        16        0    0.0000
    101 H         180.4807   69.3297    1.7541 H        16        0    0.0000
    102 H         180.0835   70.8534    0.9674 H        16        0    0.0000
    103 C         178.3924   69.9238    1.9899 C.3      17        0    0.0000
    104 C         178.5789   70.7106    3.2919 C.3      17        0    0.0000
    105 H         177.6152   70.3936    1.3744 H        17        0    0.0000
    106 H         178.0466   68.9064    2.2114 H        17        0    0.0000
    107 H         177.9715   70.2664    4.0902 H        17        0    0.0000
    108 H         179.6238   70.6513    3.6209 H        17        0    0.0000
    109 C         178.1832   72.2194    3.1360 C.3      18        0    0.0000
    110 C         178.4086   73.0153    4.4263 C.3      18        0    0.0000
    111 H         178.7690   72.6560    2.3176 H        18        0    0.0000
    112 H         177.1296   72.2795    2.8362 H        18        0    0.0000
    113 H         178.2526   74.0852    4.2404 H        18        0    0.0000
    114 H         177.6747   72.7171    5.1853 H        18        0    0.0000
    115 C         179.8495   72.8084    5.0079 C.3      19        0    0.0000
    116 C         180.0382   73.5120    6.3564 C.3      19        0    0.0000
    117 H         180.0363   71.7327    5.1155 H        19        0    0.0000
    118 H         180.5812   73.1841    4.2819 H        19        0    0.0000
    119 H         179.2847   74.3000    6.4782 H        19        0    0.0000
    120 H         179.8850   72.8000    7.1769 H        19        0    0.0000
    121 C         181.4633   74.1491    6.4998 C.3      20        0    0.0000
    122 C         181.6269   74.9160    7.8167 C.3      20        0    0.0000
    123 H         182.2151   73.3529    6.4323 H        20        0    0.0000
    124 H         181.6379   74.8201    5.6496 H        20        0    0.0000
    125 H         180.8496   75.6853    7.9030 H        20        0    0.0000
    126 H         181.4930   74.2360    8.6671 H        20        0    0.0000
    127 C         183.0318   75.6016    7.9343 C.3      21        0    0.0000
    128 C         183.1337   76.5096    9.1649 C.3      21        0    0.0000
    129 H         183.8030   74.8225    7.9768 H        21        0    0.0000
    130 H         183.2197   76.1815    7.0223 H        21        0    0.0000
    131 H         182.2261   77.1186    9.2592 H        21        0    0.0000
    132 H         183.2016   75.9022   10.0759 H        21        0    0.0000
    133 C         184.3769   77.4622    9.0989 C.3      22        0    0.0000
    134 C         184.3429   78.5380   10.1900 C.3      22        0    0.0000
    135 H         185.2892   76.8601    9.1926 H        22        0    0.0000
    136 H         184.4101   77.9322    8.1082 H        22        0    0.0000
    137 H         183.6766   78.2270   11.0042 H        22        0    0.0000
    138 H         185.3409   78.6604   10.6289 H        22        0    0.0000
    139 C         183.8584   79.9246    9.6423 C.3      23        0    0.0000
    140 C         183.4506   80.8830   10.7667 C.3      23        0    0.0000
    141 H         184.6627   80.3687    9.0428 H        23        0    0.0000
    142 H         183.0128   79.7605    8.9628 H        23        0    0.0000
    143 H         182.7506   80.3856   11.4495 H        23        0    0.0000
    144 H         184.3293   81.1592   11.3626 H        23        0    0.0000
    145 C         182.7800   82.1900   10.2194 C.3      24        0    0.0000
    146 C         183.0268   83.3958   11.1327 C.3      24        0    0.0000
    147 H         183.1700   82.3933    9.2144 H        24        0    0.0000
    148 H         181.7025   82.0153   10.1099 H        24        0    0.0000
    149 H         182.4923   83.2645   12.0818 H        24        0    0.0000
    150 H         184.0933   83.4688   11.3793 H        24        0    0.0000
    151 C         182.5667   84.7427   10.4758 C.3      25        0    0.0000
    152 C         183.5889   85.8666   10.6781 C.3      25        0    0.0000
    153 H         182.3994   84.5747    9.4047 H        25        0    0.0000
    154 H         181.5992   85.0326   10.9041 H        25        0    0.0000
    155 H         183.3118   86.4751   11.5479 H        25        0    0.0000
    156 H         184.5774   85.4419   10.8929 H        25        0    0.0000
    157 C         183.7017   86.8000    9.4237 C.3      26        0    0.0000
    158 C         185.1553   87.0124    8.9866 C.3      26        0    0.0000
    159 H         183.1224   86.3601    8.6024 H        26        0    0.0000
    160 H         183.2344   87.7646    9.6575 H        26        0    0.0000
    161 H         185.5384   87.9539    9.3993 H        26        0    0.0000
    162 H         185.7894   86.2118    9.3872 H        26        0    0.0000
    163 C         185.3079   87.0452    7.4268 C.3      27        0    0.0000
    164 C         186.6653   86.5044    6.9644 C.3      27        0    0.0000
    165 H         184.4966   86.4574    6.9797 H        27        0    0.0000
    166 H         185.1766   88.0779    7.0803 H        27        0    0.0000
    167 H         187.4741   87.1346    7.3547 H        27        0    0.0000
    168 H         186.8269   85.4977    7.3696 H        27        0    0.0000
    169 C         186.7802   86.4447    5.4022 C.3      28        0    0.0000
    170 C         188.2111   86.6983    4.9149 C.3      28        0    0.0000
    171 H         186.4350   85.4613    5.0595 H        28        0    0.0000
    172 H         186.0982   87.1866    4.9688 H        28        0    0.0000
    173 H         188.5877   87.6419    5.3288 H        28        0    0.0000
    174 H         188.8780   85.9066    5.2779 H        28        0    0.0000
    175 C         188.3040   86.7598    3.3512 C.3      29        0    0.0000
    176 C         189.7531   86.7219    2.8536 C.3      29        0    0.0000
    177 H         187.7396   85.9186    2.9301 H        29        0    0.0000
    178 H         187.8107   87.6758    3.0034 H        29        0    0.0000
    179 H         190.2968   87.6053    3.2108 H        29        0    0.0000
    180 H         190.2697   85.8462    3.2658 H        29        0    0.0000
    181 C         189.8430   86.6716    1.2893 C.3      30        0    0.0000
    182 C         191.2920   86.6306    0.7918 C.3      30        0    0.0000
    183 H         189.2974   85.7895    0.9320 H        30        0    0.0000
    184 H         189.3285   87.5485    0.8772 H        30        0    0.0000
    185 H         191.8387   87.5108    1.1523 H        30        0    0.0000
    186 H         191.8055   85.7516    1.2008 H        30        0    0.0000
    187 C         191.3820   86.5858   -0.7727 C.3      31        0    0.0000
    188 C         192.3753   87.6129   -1.3270 C.3      31        0    0.0000
    189 H         191.6750   85.5746   -1.0812 H        31        0    0.0000
    190 H         190.3832   86.7653   -1.1895 H        31        0    0.0000
    191 H         192.3358   88.5336   -0.7318 H        31        0    0.0000
    192 H         193.3994   87.2282   -1.2447 H        31        0    0.0000
    193 C         192.0880   87.9679   -2.8266 C.3      32        0    0.0000
    194 C         193.1660   87.4221   -3.7696 C.3      32        0    0.0000
    195 H         191.1064   87.5641   -3.1038 H        32        0    0.0000
    196 H         192.0193   89.0584   -2.9250 H        32        0    0.0000
    197 H         193.9006   88.2053   -3.9944 H        32        0    0.0000
    198 H         193.7143   86.6065   -3.2820 H        32        0    0.0000
    199 C         192.5642   86.8921   -5.1165 C.3      33        0    0.0000
    200 C         193.0576   87.6914   -6.3276 C.3      33        0    0.0000
    201 H         192.8303   85.8339   -5.2305 H        33        0    0.0000
    202 H         191.4697   86.9370   -5.0567 H        33        0    0.0000
    203 H         193.1903   88.7455   -6.0538 H        33        0    0.0000
    204 H         194.0403   87.3227   -6.6466 H        33        0    0.0000
    205 C         192.0674   87.6050   -7.5398 C.3      34        0    0.0000
    206 C         192.7903   87.3215   -8.8612 C.3      34        0    0.0000
    207 H         191.3296   86.8185   -7.3384 H        34        0    0.0000
    208 H         191.5114   88.5481   -7.6101 H        34        0    0.0000
    209 H         193.3661   88.2023   -9.1716 H        34        0    0.0000
    210 H         193.5110   86.5050   -8.7281 H        34        0    0.0000
    211 C         191.7970   86.9362  -10.0111 C.3      35        0    0.0000
    212 C         192.3846   87.2054  -11.4008 C.3      35        0    0.0000
    213 H         191.5359   85.8753   -9.9122 H        35        0    0.0000
    214 H         190.8670   87.5031   -9.8797 H        35        0    0.0000
    215 H         192.7428   88.2405  -11.4637 H        35        0    0.0000
    216 H         193.2549   86.5599  -11.5727 H        35        0    0.0000
    217 C         191.3408   86.9615  -12.5447 C.3      36        0    0.0000
    218 C         191.9573   87.1255  -13.9383 C.3      36        0    0.0000
    219 H         190.9242   85.9527  -12.4340 H        36        0    0.0000
    220 H         190.5066   87.6626  -12.4175 H        36        0    0.0000
    221 H         192.3517   88.1423  -14.0578 H        36        0    0.0000
    222 H         192.8073   86.4421  -14.0564 H        36        0    0.0000
    223 C         190.9223   86.8472  -15.0823 C.3      37        0    0.0000
    224 C         191.5384   87.0126  -16.4759 C.3      37        0    0.0000
    225 H         190.5287   85.8301  -14.9633 H        37        0    0.0000
    226 H         190.0719   87.5300  -14.9635 H        37        0    0.0000
    227 H         191.9333   88.0293  -16.5943 H        37        0    0.0000
    228 H         192.3880   86.3288  -16.5951 H        37        0    0.0000
    229 C         190.5029   86.7363  -17.6199 C.3      38        0    0.0000
    230 C         191.1196   86.8996  -19.0134 C.3      38        0    0.0000
    231 H         190.1069   85.7202  -17.5005 H        38        0    0.0000
    232 H         189.6541   87.4211  -17.5015 H        38        0    0.0000
    233 H         191.5152   87.9158  -19.1330 H        38        0    0.0000
    234 H         191.9687   86.2150  -19.1317 H        38        0    0.0000
    235 C         190.0842   86.6226  -20.1575 C.3      39        0    0.0000
    236 C         190.7005   86.7874  -21.5510 C.3      39        0    0.0000
    237 H         189.6893   85.6061  -20.0385 H        39        0    0.0000
    238 H         189.2346   87.3065  -20.0386 H        39        0    0.0000
    239 H         191.0948   87.8041  -21.6702 H        39        0    0.0000
    240 H         191.5504   86.1039  -21.6697 H        39        0    0.0000
    241 C         189.6653   86.5096  -22.6951 C.3      40        0    0.0000
    242 C         190.2815   86.6746  -24.0887 C.3      40        0    0.0000
    243 H         189.2711   85.4928  -22.5761 H        40        0    0.0000
    244 H         188.8153   87.1929  -22.5763 H        40        0    0.0000
    245 H         190.6778   87.6908  -24.2068 H        40        0    0.0000
    246 H         191.1301   85.9897  -24.2082 H        40        0    0.0000
    247 C         189.2455   86.4001  -25.2327 C.3      41        0    0.0000
    248 C         189.8621   86.5639  -26.6263 C.3      41        0    0.0000
    249 H         188.8486   85.3843  -25.1139 H        41        0    0.0000
    250 H         188.3974   87.0857  -25.1136 H        41        0    0.0000
    251 H         190.2570   87.5804  -26.7457 H        41        0    0.0000
    252 H         190.7116   85.8799  -26.7445 H        41        0    0.0000
    253 C         188.8268   86.2863  -27.7703 C.3      42        0    0.0000
    254 C         189.4433   86.4505  -29.1638 C.3      42        0    0.0000
    255 H         188.4321   85.2697  -27.6509 H        42        0    0.0000
    256 H         187.9772   86.9701  -27.6519 H        42        0    0.0000
    257 H         189.8423   87.4656  -29.2815 H        42        0    0.0000
    258 H         190.2900   85.7633  -29.2840 H        42        0    0.0000
    259 C         188.4063   86.1795  -30.3079 C.3      43        0    0.0000
    260 C         189.0230   86.3427  -31.7014 C.3      43        0    0.0000
    261 H         188.0068   85.1646  -30.1898 H        43        0    0.0000
    262 H         187.5600   86.8671  -30.1881 H        43        0    0.0000
    263 H         188.3207   85.9908  -32.4672 H        43        0    0.0000
    264 H         189.2092   87.4038  -31.9085 H        43        0    0.0000
    265 C         190.3700   85.5549  -31.8510 C.3      44        0    0.0000
    266 C         190.9863   85.7174  -33.2449 C.3      44        0    0.0000
    267 H         191.0726   85.9072  -31.0857 H        44        0    0.0000
    268 H         190.1841   84.4938  -31.6434 H        44        0    0.0000
    269 H         191.9914   86.1495  -33.1638 H        44        0    0.0000
    270 H         191.1028   84.7361  -33.7214 H        44        0    0.0000
    271 C         190.1171   86.6312  -34.1759 C.3      45        0    0.0000
    272 C         190.5277   86.5183  -35.6482 C.3      45        0    0.0000
    273 H         189.0620   86.3549  -34.0574 H        45        0    0.0000
    274 H         190.2103   87.6708  -33.8380 H        45        0    0.0000
    275 H         191.3162   87.2464  -35.8757 H        45        0    0.0000
    276 H         190.9495   85.5250  -35.8460 H        45        0    0.0000
    277 C         189.3223   86.7582  -36.6213 C.3      46        0    0.0000
    278 C         189.7350   86.6549  -38.0937 C.3      46        0    0.0000
    279 H         188.5367   86.0256  -36.3985 H        46        0    0.0000
    280 H         188.8961   87.7486  -36.4188 H        46        0    0.0000
    281 H         189.9427   85.6095  -38.3537 H        46        0    0.0000
    282 H         188.9107   86.9822  -38.7393 H        46        0    0.0000
    283 C         191.0033   87.5176  -38.4172 C.3      47        0    0.0000
    284 C         191.3989   87.4371  -39.8957 C.3      47        0    0.0000
    285 H         190.8031   88.5593  -38.1376 H        47        0    0.0000
    286 H         191.8335   87.1761  -37.7865 H        47        0    0.0000
    287 H         191.3576   88.4343  -40.3510 H        47        0    0.0000
    288 H         192.4357   87.0908  -39.9894 H        47        0    0.0000
    289 C         190.4684   86.4718  -40.7080 C.3      48        0    0.0000
    290 C         190.6861   86.5913  -42.2204 C.3      48        0    0.0000
    291 H         190.6561   85.4415  -40.3812 H        48        0    0.0000
    292 H         189.4236   86.6957  -40.4595 H        48        0    0.0000
    293 H         191.6686   87.0343  -42.4252 H        48        0    0.0000
    294 H         190.6876   85.5952  -42.6801 H        48        0    0.0000
    295 C         189.5837   87.4653  -42.9121 C.3      49        0    0.0000
    296 C         189.1361   86.8793  -44.2557 C.3      49        0    0.0000
    297 H         188.7250   87.5524  -42.2349 H        49        0    0.0000
    298 H         189.9756   88.4798  -43.0561 H        49        0    0.0000
    299 H         189.9948   86.7922  -44.9329 H        49        0    0.0000
    300 H         188.7443   85.8647  -44.1118 H        49        0    0.0000
    301 H         188.3696   87.4870  -44.7366 H        49        0    0.0000
    302 H         179.2798   70.5087  -40.4349 H         0        0    0.0000
@<TRIPOS>BOND
     1     1     2      1
     2     1     3      1
     3     1     4      1
     4     1   302      H
     5     2     5      1
     6     2     6      1
     7     2     7      1
     8     7     8      1
     9     7     9      1
    10     7    10      1
    11     8    11      1
    12     8    12      1
    13     8    13      1
    14    13    14      1
    15    13    15      1
    16    13    16      1
    17    14    17      1
    18    14    18      1
    19    14    19      1
    20    19    20      1
    21    19    21      1
    22    19    22      1
    23    20    23      1
    24    20    24      1
    25    20    25      1
    26    25    26      1
    27    25    27      1
    28    25    28      1
    29    26    29      1
    30    26    30      1
    31    26    31      1
    32    31    32      1
    33    31    33      1
    34    31    34      1
    35    32    35      1
    36    32    36      1
    37    32    37      1
    38    37    38      1
    39    37    39      1
    40    37    40      1
    41    38    41      1
    42    38    42      1
    43    38    43      1
    44    43    44      1
    45    43    45      1
    46    43    46      1
    47    44    47      1
    48    44    48      1
    49    44    49      1
    50    49    50      1
    51    49    51      1
    52    49    52      1
    53    50    53      1
    54    50    54      1
    55    50    55      1
    56    55    56      1
    57    55    57      1
    58    55    58      1
    59    56    59      1
    60    56    60      1
    61    56    61      1
    62    61    62      1
    63    61    63      1
    64    61    64      1
    65    62    65      1
    66    62    66      1
    67    62    67      1
    68    67    68      1
    69    67    69      1
    70    67    70      1
    71    68    71      1
    72    68    72      1
    73    68    73      1
    74    73    74      1
    75    73    75      1
    76    73    76      1
    77    74    77      1
    78    74    78      1
    79    74    79      1
    80    79    80      1
    81    79    81      1
    82    79    82      1
    83    80    83      1
    84    80    84      1
    85    80    85      1
    86    85    86      1
    87    85    87      1
    88    85    88      1
    89    86    89      1
    90    86    90      1
    91    86    91      1
    92    91    92      1
    93    91    93      1
    94    91    94      1
    95    92    95      1
    96    92    96      1
    97    92    97      1
    98    97    98      1
    99    97    99      1
   100    97   100      1
   101    98   101      1
   102    98   102      1
   103    98   103      1
   104   103   104      1
   105   103   105      1
   106   103   106      1
   107   104   107      1
   108   104   108      1
   109   104   109      1
   110   109   110      1
   111   109   111      1
   112   109   112      1
   113   110   113      1
   114   110   114      1
   115   110   115      1
   116   115   116      1
   117   115   117      1
   118   115   118      1
   119   116   119      1
   120   116   120      1
   121   116   121      1
   122   121   122      1
   123   121   123      1
   124   121   124      1
   125   122   125      1
   126   122   126      1
   127   122   127      1
   128   127   128      1
   129   127   129      1
   130   127   130      1
   131   128   131      1
   132   128   132      1
   133   128   133      1
   134   133   134      1
   135   133   135      1
   136   133   136      1
   137   134   137      1
   138   134   138      1
   139   134   139      1
   140   139   140      1
   141   139   141      1
   142   139   142      1
   143   140   143      1
   144   140   144      1
   145   140   145      1
   146   145   146      1
   147   145   147      1
   148   145   148      1
   149   146   149      1
   150   146   150      1
   151   146   151      1
   152   151   152      1
   153   151   153      1
   154   151   154      1
   155   152   155      1
   156   152   156      1
   157   152   157      1
   158   157   158      1
   159   157   159      1
   160   157   160      1
   161   158   161      1
   162   158   162      1
   163   158   163      1
   164   163   164      1
   165   163   165      1
   166   163   166      1
   167   164   167      1
   168   164   168      1
   169   164   169      1
   170   169   170      1
   171   169   171      1
   172   169   172      1
   173   170   173      1
   174   170   174      1
   175   170   175      1
   176   175   176      1
   177   175   177      1
   178   175   178      1
   179   176   179      1
   180   176   180      1
   181   176   181      1
   182   181   182      1
   183   181   183      1
   184   181   184      1
   185   182   185      1
   186   182   186      1
   187   182   187      1
   188   187   188      1
   189   187   189      1
   190   187   190      1
   191   188   191      1
   192   188   192      1
   193   188   193      1
   194   193   194      1
   195   193   195      1
   196   193   196      1
   197   194   197      1
   198   194   198      1
   199   194   199      1
   200   199   200      1
   201   199   201      1
   202   199   202      1
   203   200   203      1
   204   200   204      1
   205   200   205      1
   206   205   206      1
   207   205   207      1
   208   205   208      1
   209   206   209      1
   210   206   210      1
   211   206   211      1
   212   211   212      1
   213   211   213      1
   214   211   214      1
   215   212   215      1
   216   212   216      1
   217   212   217      1
   218   217   218      1
   219   217   219      1
   220   217   220      1
   221   218   221      1
   222   218   222      1
   223   218   223      1
   224   223   224      1
   225   223   225      1
   226   223   226      1
   227   224   227      1
   228   224   228      1
   229   224   229      1
   230   229   230      1
   231   229   231      1
   232   229   232      1
   233   230   233      1
   234   230   234      1
   235   230   235      1
   236   235   236      1
   237   235   237      1
   238   235   238      1
   239   236   239      1
   240   236   240      1
   241   236   241      1
   242   241   242      1
   243   241   243      1
   244   241   244      1
   245   242   245      1
   246   242   246      1
   247   242   247      1
   248   247   248      1
   249   247   249      1
   250   247   250      1
   251   248   251      1
   252   248   252      1
   253   248   253      1
   254   253   254      1
   255   253   255      1
   256   253   256      1
   257   254   257      1
   258   254   258      1
   259   254   259      1
   260   259   260      1
   261   259   261      1
   262   259   262      1
   263   260   263      1
   264   260   264      1
   265   260   265      1
   266   265   266      1
   267   265   267      1
   268   265   268      1
   269   266   269      1
   270   266   270      1
   271   266   271      1
   272   271   272      1
   273   271   273      1
   274   271   274      1
   275   272   275      1
   276   272   276      1
   277   272   277      1
   278   277   278      1
   279   277   279      1
   280   277   280      1
   281   278   281      1
   282   278   282      1
   283   278   283      1
   284   283   284      1
   285   283   285      1
   286   283   286      1
   287   284   287      1
   288   284   288      1
   289   284   289      1
   290   289   290      1
   291   289   291      1
   292   289   292      1
   293   290   293      1
   294   290   294      1
   295   290   295      1
   296   295   296      1
   297   295   297      1
   298   295   298      1
   299   296   299      1
   300   296   300      1
   301   296   301      H
