###
### Created by PolyChef-cpp17 on Thu Feb 27 19:40:30 2025
###

@<TRIPOS>MOLECULE
NO_INFO
134 133 1 0 0
SMALL
USER_CHARGES


@<TRIPOS>ATOM
      1 C         159.2798   35.8687  -39.3449 C.3       0        0    0.0000
      2 C         157.8706   35.7082  -38.7641 C.3       0        0    0.0000
      3 H         159.9271   35.0566  -38.9913 H         0        0    0.0000
      4 H         159.7280   36.8055  -38.9913 H         0        0    0.0000
      5 H         157.3720   36.6840  -38.7115 H         0        0    0.0000
      6 H         157.2612   35.0782  -39.4239 H         0        0    0.0000
      7 C         157.8874   35.0715  -37.3317 C.3       1        0    0.0000
      8 C         159.1653   35.4148  -36.5584 C.3       1        0    0.0000
      9 H         157.0073   35.4223  -36.7785 H         1        0    0.0000
     10 H         157.7863   33.9833  -37.4272 H         1        0    0.0000
     11 H         160.0454   35.2394  -37.1894 H         1        0    0.0000
     12 H         159.1723   36.4804  -36.2973 H         1        0    0.0000
     13 C         159.3094   34.5717  -35.2447 C.3       2        0    0.0000
     14 C         160.2047   35.2597  -34.2082 C.3       2        0    0.0000
     15 H         158.3110   34.3992  -34.8240 H         2        0    0.0000
     16 H         159.7184   33.5863  -35.5000 H         2        0    0.0000
     17 H         161.2597   35.1412  -34.4845 H         2        0    0.0000
     18 H         160.0023   36.3379  -34.1928 H         2        0    0.0000
     19 C         159.9926   34.6852  -32.7651 C.3       3        0    0.0000
     20 C         160.6149   35.5791  -31.6868 C.3       3        0    0.0000
     21 H         158.9166   34.5714  -32.5844 H         3        0    0.0000
     22 H         160.4282   33.6795  -32.7174 H         3        0    0.0000
     23 H         161.7039   35.6189  -31.8136 H         3        0    0.0000
     24 H         160.2477   36.6075  -31.7927 H         3        0    0.0000
     25 C         160.2930   35.0743  -30.2381 C.3       4        0    0.0000
     26 C         160.8852   35.9880  -29.1595 C.3       4        0    0.0000
     27 H         159.2042   35.0096  -30.1200 H         4        0    0.0000
     28 H         160.6833   34.0554  -30.1238 H         4        0    0.0000
     29 H         161.9749   36.0464  -29.2728 H         4        0    0.0000
     30 H         160.5010   37.0087  -29.2787 H         4        0    0.0000
     31 C         160.5538   35.4893  -27.7108 C.3       5        0    0.0000
     32 C         161.1597   36.3941  -26.6322 C.3       5        0    0.0000
     33 H         159.4640   35.4422  -27.5936 H         5        0    0.0000
     34 H         160.9276   34.4643  -27.5955 H         5        0    0.0000
     35 H         162.2491   36.4435  -26.7511 H         5        0    0.0000
     36 H         160.7836   37.4184  -26.7457 H         5        0    0.0000
     37 C         160.8317   35.8930  -25.1834 C.3       6        0    0.0000
     38 C         161.4114   36.8148  -24.1049 C.3       6        0    0.0000
     39 H         159.7427   35.8219  -25.0719 H         6        0    0.0000
     40 H         161.2278   34.8771  -25.0625 H         6        0    0.0000
     41 H         162.5008   36.8836  -24.2147 H         6        0    0.0000
     42 H         161.0176   37.8314  -24.2275 H         6        0    0.0000
     43 C         161.0801   36.3160  -22.6562 C.3       7        0    0.0000
     44 C         162.1346   36.7564  -21.6348 C.3       7        0    0.0000
     45 H         160.0935   36.6991  -22.3672 H         7        0    0.0000
     46 H         161.0020   35.2218  -22.6682 H         7        0    0.0000
     47 H         163.1349   36.4626  -21.9764 H         7        0    0.0000
     48 H         162.1401   37.8499  -21.5476 H         7        0    0.0000
     49 C         161.8830   36.1376  -20.2167 C.3       8        0    0.0000
     50 C         161.8515   37.2030  -19.1153 C.3       8        0    0.0000
     51 H         160.9344   35.5868  -20.2344 H         8        0    0.0000
     52 H         162.6700   35.4027  -20.0068 H         8        0    0.0000
     53 H         162.8741   37.4848  -18.8353 H         8        0    0.0000
     54 H         161.3643   38.1133  -19.4863 H         8        0    0.0000
     55 C         161.0942   36.7108  -17.8340 C.3       9        0    0.0000
     56 C         161.9706   36.7808  -16.5786 C.3       9        0    0.0000
     57 H         160.1937   37.3225  -17.6987 H         9        0    0.0000
     58 H         160.7538   35.6809  -17.9982 H         9        0    0.0000
     59 H         162.9899   36.4495  -16.8124 H         9        0    0.0000
     60 H         162.0484   37.8186  -16.2315 H         9        0    0.0000
     61 C         161.4079   35.8985  -15.4114 C.3      10        0    0.0000
     62 C         161.6994   36.5032  -14.0336 C.3      10        0    0.0000
     63 H         160.3260   35.7788  -15.5484 H        10        0    0.0000
     64 H         161.8472   34.8957  -15.4826 H        10        0    0.0000
     65 H         162.7777   36.4796  -13.8329 H        10        0    0.0000
     66 H         161.3985   37.5580  -14.0144 H        10        0    0.0000
     67 C         160.9543   35.7443  -12.8819 C.3      11        0    0.0000
     68 C         161.3949   36.2195  -11.4930 C.3      11        0    0.0000
     69 H         159.8738   35.8896  -13.0039 H        11        0    0.0000
     70 H         161.1415   34.6686  -12.9884 H        11        0    0.0000
     71 H         162.4815   36.1124  -11.3860 H        11        0    0.0000
     72 H         161.1700   37.2863  -11.3715 H        11        0    0.0000
     73 C         160.6927   35.4207  -10.3413 C.3      12        0    0.0000
     74 C         161.1231   35.9050   -8.9524 C.3      12        0    0.0000
     75 H         159.6059   35.5196  -10.4541 H        12        0    0.0000
     76 H         160.9258   34.3550  -10.4571 H        12        0    0.0000
     77 H         162.2094   35.8022   -8.8381 H        12        0    0.0000
     78 H         160.8939   36.9717   -8.8381 H        12        0    0.0000
     79 C         160.4165   35.1102   -7.8007 C.3      13        0    0.0000
     80 C         160.8468   35.5945   -6.4117 C.3      13        0    0.0000
     81 H         159.3302   35.2129   -7.9150 H        13        0    0.0000
     82 H         160.6458   34.0434   -7.9149 H        13        0    0.0000
     83 H         161.9332   35.4929   -6.2978 H        13        0    0.0000
     84 H         160.6165   36.6610   -6.2972 H        13        0    0.0000
     85 C         160.1413   34.7986   -5.2600 C.3      14        0    0.0000
     86 C         160.5717   35.2830   -3.8711 C.3      14        0    0.0000
     87 H         159.0550   34.9003   -5.3739 H        14        0    0.0000
     88 H         160.3717   33.7322   -5.3746 H        14        0    0.0000
     89 H         161.6585   35.1838   -3.7581 H        14        0    0.0000
     90 H         160.3390   36.3488   -3.7555 H        14        0    0.0000
     91 C         159.8691   34.4846   -2.7194 C.3      15        0    0.0000
     92 C         160.2940   34.9738   -1.3304 C.3      15        0    0.0000
     93 H         158.7823   34.5794   -2.8354 H        15        0    0.0000
     94 H         160.1062   33.4194   -2.8319 H        15        0    0.0000
     95 H         161.3770   34.8528   -1.2041 H        15        0    0.0000
     96 H         160.0827   36.0454   -1.2281 H        15        0    0.0000
     97 C         159.5616   34.2021   -0.1791 C.3      16        0    0.0000
     98 C         159.5797   34.9774    1.1429 C.3      16        0    0.0000
     99 H         158.5268   34.0070   -0.4866 H        16        0    0.0000
    100 H         160.0410   33.2241   -0.0482 H        16        0    0.0000
    101 H         160.6024   35.0248    1.5372 H        16        0    0.0000
    102 H         159.2580   36.0129    0.9762 H        16        0    0.0000
    103 C         158.6505   34.3277    2.2254 C.3      17        0    0.0000
    104 C         157.9084   35.3777    3.0597 C.3      17        0    0.0000
    105 H         157.9310   33.6684    1.7242 H        17        0    0.0000
    106 H         159.2599   33.6906    2.8783 H        17        0    0.0000
    107 H         158.6078   35.8826    3.7374 H        17        0    0.0000
    108 H         157.4902   36.1518    2.4045 H        17        0    0.0000
    109 C         156.7474   34.7514    3.9066 C.3      18        0    0.0000
    110 C         156.9267   34.9966    5.4089 C.3      18        0    0.0000
    111 H         155.7940   35.1750    3.5675 H        18        0    0.0000
    112 H         156.7033   33.6741    3.7040 H        18        0    0.0000
    113 H         157.9867   35.1602    5.6394 H        18        0    0.0000
    114 H         156.3951   35.9087    5.7072 H        18        0    0.0000
    115 C         156.4005   33.7994    6.2733 C.3      19        0    0.0000
    116 C         154.9637   34.0208    6.7587 C.3      19        0    0.0000
    117 H         156.4587   32.8803    5.6770 H        19        0    0.0000
    118 H         157.0703   33.6613    7.1311 H        19        0    0.0000
    119 H         154.9692   34.4187    7.7810 H        19        0    0.0000
    120 H         154.4661   34.7707    6.1314 H        19        0    0.0000
    121 C         154.1185   32.7008    6.7348 C.3      20        0    0.0000
    122 C         152.7567   32.8952    6.0590 C.3      20        0    0.0000
    123 H         154.6904   31.9241    6.2121 H        20        0    0.0000
    124 H         153.9804   32.3506    7.7653 H        20        0    0.0000
    125 H         151.9825   33.0708    6.8163 H        20        0    0.0000
    126 H         152.7784   33.7855    5.4183 H        20        0    0.0000
    127 C         152.3423   31.6576    5.1905 C.3      21        0    0.0000
    128 C         151.8421   32.0649    3.8003 C.3      21        0    0.0000
    129 H         153.2047   30.9859    5.0981 H        21        0    0.0000
    130 H         151.5626   31.0979    5.7218 H        21        0    0.0000
    131 H         150.9797   32.7367    3.8927 H        21        0    0.0000
    132 H         152.6219   32.6246    3.2690 H        21        0    0.0000
    133 H         151.5540   31.2045    3.1964 H        21        0    0.0000
    134 H         159.2798   35.8687  -40.4349 H         0        0    0.0000
@<TRIPOS>BOND
     1     1     2      1
     2     1     3      1
     3     1     4      1
     4     1   134      H
     5     2     5      1
     6     2     6      1
     7     2     7      1
     8     7     8      1
     9     7     9      1
    10     7    10      1
    11     8    11      1
    12     8    12      1
    13     8    13      1
    14    13    14      1
    15    13    15      1
    16    13    16      1
    17    14    17      1
    18    14    18      1
    19    14    19      1
    20    19    20      1
    21    19    21      1
    22    19    22      1
    23    20    23      1
    24    20    24      1
    25    20    25      1
    26    25    26      1
    27    25    27      1
    28    25    28      1
    29    26    29      1
    30    26    30      1
    31    26    31      1
    32    31    32      1
    33    31    33      1
    34    31    34      1
    35    32    35      1
    36    32    36      1
    37    32    37      1
    38    37    38      1
    39    37    39      1
    40    37    40      1
    41    38    41      1
    42    38    42      1
    43    38    43      1
    44    43    44      1
    45    43    45      1
    46    43    46      1
    47    44    47      1
    48    44    48      1
    49    44    49      1
    50    49    50      1
    51    49    51      1
    52    49    52      1
    53    50    53      1
    54    50    54      1
    55    50    55      1
    56    55    56      1
    57    55    57      1
    58    55    58      1
    59    56    59      1
    60    56    60      1
    61    56    61      1
    62    61    62      1
    63    61    63      1
    64    61    64      1
    65    62    65      1
    66    62    66      1
    67    62    67      1
    68    67    68      1
    69    67    69      1
    70    67    70      1
    71    68    71      1
    72    68    72      1
    73    68    73      1
    74    73    74      1
    75    73    75      1
    76    73    76      1
    77    74    77      1
    78    74    78      1
    79    74    79      1
    80    79    80      1
    81    79    81      1
    82    79    82      1
    83    80    83      1
    84    80    84      1
    85    80    85      1
    86    85    86      1
    87    85    87      1
    88    85    88      1
    89    86    89      1
    90    86    90      1
    91    86    91      1
    92    91    92      1
    93    91    93      1
    94    91    94      1
    95    92    95      1
    96    92    96      1
    97    92    97      1
    98    97    98      1
    99    97    99      1
   100    97   100      1
   101    98   101      1
   102    98   102      1
   103    98   103      1
   104   103   104      1
   105   103   105      1
   106   103   106      1
   107   104   107      1
   108   104   108      1
   109   104   109      1
   110   109   110      1
   111   109   111      1
   112   109   112      1
   113   110   113      1
   114   110   114      1
   115   110   115      1
   116   115   116      1
   117   115   117      1
   118   115   118      1
   119   116   119      1
   120   116   120      1
   121   116   121      1
   122   121   122      1
   123   121   123      1
   124   121   124      1
   125   122   125      1
   126   122   126      1
   127   122   127      1
   128   127   128      1
   129   127   129      1
   130   127   130      1
   131   128   131      1
   132   128   132      1
   133   128   133      H
