###
### Created by PolyChef-cpp17 on Thu Feb 27 19:40:30 2025
###

@<TRIPOS>MOLECULE
NO_INFO
146 145 1 0 0
SMALL
USER_CHARGES


@<TRIPOS>ATOM
      1 C         129.2798   18.5487  120.6551 C.3       0        0    0.0000
      2 C         128.4513   17.3975  120.0742 C.3       0        0    0.0000
      3 H         128.8875   19.5102  120.3015 H         0        0    0.0000
      4 H         130.3162   18.4821  120.3014 H         0        0    0.0000
      5 H         128.4069   16.5674  120.7901 H         0        0    0.0000
      6 H         127.4177   17.7249  119.9070 H         0        0    0.0000
      7 C         129.0383   16.8668  118.7210 C.3       1        0    0.0000
      8 C         129.6364   17.9903  117.8670 C.3       1        0    0.0000
      9 H         129.8040   16.1121  118.9394 H         1        0    0.0000
     10 H         128.2417   16.3560  118.1661 H         1        0    0.0000
     11 H         128.9471   18.8430  117.8309 H         1        0    0.0000
     12 H         130.5654   18.3552  118.3225 H         1        0    0.0000
     13 C         129.9412   17.5246  116.4015 C.3       2        0    0.0000
     14 C         129.8926   18.6849  115.4013 C.3       2        0    0.0000
     15 H         130.9303   17.0503  116.3797 H         2        0    0.0000
     16 H         129.2153   16.7526  116.1176 H         2        0    0.0000
     17 H         128.9772   19.2710  115.5494 H         2        0    0.0000
     18 H         130.7346   19.3665  115.5747 H         2        0    0.0000
     19 C         129.9409   18.1901  113.9146 C.3       3        0    0.0000
     20 C         129.8461   19.3472  112.9140 C.3       3        0    0.0000
     21 H         130.8725   17.6325  113.7576 H         3        0    0.0000
     22 H         129.1187   17.4826  113.7505 H         3        0    0.0000
     23 H         128.9209   19.9131  113.0798 H         3        0    0.0000
     24 H         130.6759   20.0478  113.0693 H         3        0    0.0000
     25 C         129.8752   18.8510  111.4273 C.3       4        0    0.0000
     26 C         130.0622   20.0030  110.4339 C.3       4        0    0.0000
     27 H         130.6864   18.1211  111.3140 H         4        0    0.0000
     28 H         128.9401   18.3183  111.2139 H         4        0    0.0000
     29 H         129.2288   20.7115  110.5183 H         4        0    0.0000
     30 H         130.9758   20.5614  110.6731 H         4        0    0.0000
     31 C         130.1505   19.5008  108.9515 C.3       5        0    0.0000
     32 C         129.2027   20.2663  108.0216 C.3       5        0    0.0000
     33 H         131.1855   19.6064  108.6035 H         5        0    0.0000
     34 H         129.9176   18.4291  108.9268 H         5        0    0.0000
     35 H         128.2384   20.4293  108.5186 H         5        0    0.0000
     36 H         129.6141   21.2586  107.7990 H         5        0    0.0000
     37 C         128.9538   19.5082  106.6721 C.3       6        0    0.0000
     38 C         129.4781   20.2891  105.4620 C.3       6        0    0.0000
     39 H         129.4383   18.5253  106.7242 H         6        0    0.0000
     40 H         127.8779   19.3238  106.5634 H         6        0    0.0000
     41 H         128.7157   20.9957  105.1113 H         6        0    0.0000
     42 H         130.3524   20.8861  105.7496 H         6        0    0.0000
     43 C         129.8780   19.3468  104.2747 C.3       7        0    0.0000
     44 C         129.4613   19.9174  102.9146 C.3       7        0    0.0000
     45 H         130.9632   19.1879  104.2995 H         7        0    0.0000
     46 H         129.4123   18.3657  104.4297 H         7        0    0.0000
     47 H         128.4182   20.2551  102.9520 H         7        0    0.0000
     48 H         130.0692   20.7984  102.6741 H         7        0    0.0000
     49 C         129.6118   18.8688  101.7591 C.3       8        0    0.0000
     50 C         129.5086   19.5135  100.3725 C.3       8        0    0.0000
     51 H         130.5780   18.3604  101.8666 H         8        0    0.0000
     52 H         128.8371   18.1008  101.8755 H         8        0    0.0000
     53 H         128.5196   19.9702  100.2427 H         8        0    0.0000
     54 H         130.2439   20.3222  100.2781 H         8        0    0.0000
     55 C         129.7433   18.4798   99.2177 C.3       9        0    0.0000
     56 C         129.6125   19.1187   97.8307 C.3       9        0    0.0000
     57 H         130.7406   18.0380   99.3358 H         9        0    0.0000
     58 H         129.0213   17.6607   99.3241 H         9        0    0.0000
     59 H         128.6188   19.5692   97.7163 H         9        0    0.0000
     60 H         130.3414   19.9312   97.7206 H         9        0    0.0000
     61 C         129.8333   18.0819   96.6758 C.3      10        0    0.0000
     62 C         129.7048   18.7213   95.2888 C.3      10        0    0.0000
     63 H         130.8263   17.6301   96.7912 H        10        0    0.0000
     64 H         129.1033   17.2702   96.7849 H        10        0    0.0000
     65 H         128.7128   19.1754   95.1744 H        10        0    0.0000
     66 H         130.4366   19.5312   95.1787 H        10        0    0.0000
     67 C         129.9219   17.6837   94.1339 C.3      11        0    0.0000
     68 C         129.7893   18.3222   92.7469 C.3      11        0    0.0000
     69 H         130.9151   17.2318   94.2466 H        11        0    0.0000
     70 H         129.1921   16.8723   94.2458 H        11        0    0.0000
     71 H         128.7950   18.7719   92.6333 H        11        0    0.0000
     72 H         130.5173   19.1354   92.6360 H        11        0    0.0000
     73 C         130.0099   17.2854   91.5920 C.3      12        0    0.0000
     74 C         129.8845   17.9254   90.2050 C.3      12        0    0.0000
     75 H         131.0020   16.8319   91.7087 H        12        0    0.0000
     76 H         129.2784   16.4750   91.6998 H        12        0    0.0000
     77 H         128.8975   18.3912   90.0935 H        12        0    0.0000
     78 H         130.6254   18.7266   90.0920 H        12        0    0.0000
     79 C         130.0855   16.8847   89.0501 C.3      13        0    0.0000
     80 C         129.9599   17.5247   87.6631 C.3      13        0    0.0000
     81 H         131.0725   16.4190   89.1615 H        13        0    0.0000
     82 H         129.3446   16.0835   89.1631 H        13        0    0.0000
     83 H         128.9706   17.9849   87.5493 H        13        0    0.0000
     84 H         130.6966   18.3300   87.5524 H        13        0    0.0000
     85 C         130.1697   16.4857   86.5082 C.3      14        0    0.0000
     86 C         130.0390   17.1246   85.1212 C.3      14        0    0.0000
     87 H         131.1606   16.0283   86.6197 H        14        0    0.0000
     88 H         129.4355   15.6784   86.6211 H        14        0    0.0000
     89 H         129.0451   17.5747   85.0066 H        14        0    0.0000
     90 H         130.7675   17.9375   85.0113 H        14        0    0.0000
     91 C         130.2605   16.0880   83.9663 C.3      15        0    0.0000
     92 C         130.1253   16.7261   82.5793 C.3      15        0    0.0000
     93 H         131.2557   15.6403   84.0790 H        15        0    0.0000
     94 H         129.5341   15.2735   84.0781 H        15        0    0.0000
     95 H         129.1668   17.2538   82.4998 H        15        0    0.0000
     96 H         130.9115   17.4769   82.4324 H        15        0    0.0000
     97 C         130.2162   15.6672   81.4268 C.3      16        0    0.0000
     98 C         130.1088   16.3086   80.0390 C.3      16        0    0.0000
     99 H         131.1658   15.1255   81.5185 H        16        0    0.0000
    100 H         129.4173   14.9277   81.5623 H        16        0    0.0000
    101 H         131.0363   16.8431   79.7988 H        16        0    0.0000
    102 H         129.9857   15.5318   79.2741 H        16        0    0.0000
    103 C         128.9077   17.3110   79.9390 C.3      17        0    0.0000
    104 C         129.1823   18.4500   78.9510 C.3      17        0    0.0000
    105 H         128.0100   16.7581   79.6356 H        17        0    0.0000
    106 H         128.7039   17.7193   80.9367 H        17        0    0.0000
    107 H         130.2628   18.6164   78.8597 H        17        0    0.0000
    108 H         128.8200   18.1771   77.9522 H        17        0    0.0000
    109 C         128.4996   19.7921   79.3869 C.3      18        0    0.0000
    110 C         128.6151   20.8785   78.3120 C.3      18        0    0.0000
    111 H         127.4438   19.5953   79.6109 H        18        0    0.0000
    112 H         128.9608   20.1365   80.3209 H        18        0    0.0000
    113 H         129.6693   21.1327   78.1459 H        18        0    0.0000
    114 H         128.2268   20.5050   77.3564 H        18        0    0.0000
    115 C         127.8359   22.1825   78.6990 C.3      19        0    0.0000
    116 C         128.0801   23.3221   77.7036 C.3      19        0    0.0000
    117 H         126.7646   21.9519   78.7513 H        19        0    0.0000
    118 H         128.1413   22.4911   79.7065 H        19        0    0.0000
    119 H         127.1260   23.7799   77.4144 H        19        0    0.0000
    120 H         128.6782   24.1117   78.1752 H        19        0    0.0000
    121 C         128.8185   22.8331   76.4102 C.3      20        0    0.0000
    122 C         129.5731   23.9675   75.7081 C.3      20        0    0.0000
    123 H         129.5149   22.0304   76.6826 H        20        0    0.0000
    124 H         128.0815   22.3926   75.7274 H        20        0    0.0000
    125 H         128.9592   24.3838   74.8998 H        20        0    0.0000
    126 H         129.7626   24.7862   76.4134 H        20        0    0.0000
    127 C         130.9408   23.4899   75.1092 C.3      21        0    0.0000
    128 C         131.5745   24.5443   74.1951 C.3      21        0    0.0000
    129 H         131.6228   23.2481   75.9338 H        21        0    0.0000
    130 H         130.7771   22.5588   74.5525 H        21        0    0.0000
    131 H         130.7919   25.1402   73.7093 H        21        0    0.0000
    132 H         132.1792   25.2417   74.7880 H        21        0    0.0000
    133 C         132.4816   23.9035   73.0887 C.3      22        0    0.0000
    134 C         133.8549   24.5784   73.0008 C.3      22        0    0.0000
    135 H         132.6010   22.8346   73.3047 H        22        0    0.0000
    136 H         131.9652   23.9742   72.1234 H        22        0    0.0000
    137 H         134.4689   24.0838   72.2379 H        22        0    0.0000
    138 H         133.7411   25.6229   72.6851 H        22        0    0.0000
    139 C         134.6223   24.5442   74.3673 C.3      23        0    0.0000
    140 C         136.0350   23.9670   74.2258 C.3      23        0    0.0000
    141 H         134.6709   25.5631   74.7711 H        23        0    0.0000
    142 H         134.0426   23.9488   75.0835 H        23        0    0.0000
    143 H         135.9864   22.9482   73.8220 H        23        0    0.0000
    144 H         136.6147   24.5625   73.5095 H        23        0    0.0000
    145 H         136.5686   23.9433   75.1760 H        23        0    0.0000
    146 H         129.2798   18.5487  121.7450 H         0        0    0.0000
@<TRIPOS>BOND
     1     1     2      1
     2     1     3      1
     3     1     4      1
     4     1   146      H
     5     2     5      1
     6     2     6      1
     7     2     7      1
     8     7     8      1
     9     7     9      1
    10     7    10      1
    11     8    11      1
    12     8    12      1
    13     8    13      1
    14    13    14      1
    15    13    15      1
    16    13    16      1
    17    14    17      1
    18    14    18      1
    19    14    19      1
    20    19    20      1
    21    19    21      1
    22    19    22      1
    23    20    23      1
    24    20    24      1
    25    20    25      1
    26    25    26      1
    27    25    27      1
    28    25    28      1
    29    26    29      1
    30    26    30      1
    31    26    31      1
    32    31    32      1
    33    31    33      1
    34    31    34      1
    35    32    35      1
    36    32    36      1
    37    32    37      1
    38    37    38      1
    39    37    39      1
    40    37    40      1
    41    38    41      1
    42    38    42      1
    43    38    43      1
    44    43    44      1
    45    43    45      1
    46    43    46      1
    47    44    47      1
    48    44    48      1
    49    44    49      1
    50    49    50      1
    51    49    51      1
    52    49    52      1
    53    50    53      1
    54    50    54      1
    55    50    55      1
    56    55    56      1
    57    55    57      1
    58    55    58      1
    59    56    59      1
    60    56    60      1
    61    56    61      1
    62    61    62      1
    63    61    63      1
    64    61    64      1
    65    62    65      1
    66    62    66      1
    67    62    67      1
    68    67    68      1
    69    67    69      1
    70    67    70      1
    71    68    71      1
    72    68    72      1
    73    68    73      1
    74    73    74      1
    75    73    75      1
    76    73    76      1
    77    74    77      1
    78    74    78      1
    79    74    79      1
    80    79    80      1
    81    79    81      1
    82    79    82      1
    83    80    83      1
    84    80    84      1
    85    80    85      1
    86    85    86      1
    87    85    87      1
    88    85    88      1
    89    86    89      1
    90    86    90      1
    91    86    91      1
    92    91    92      1
    93    91    93      1
    94    91    94      1
    95    92    95      1
    96    92    96      1
    97    92    97      1
    98    97    98      1
    99    97    99      1
   100    97   100      1
   101    98   101      1
   102    98   102      1
   103    98   103      1
   104   103   104      1
   105   103   105      1
   106   103   106      1
   107   104   107      1
   108   104   108      1
   109   104   109      1
   110   109   110      1
   111   109   111      1
   112   109   112      1
   113   110   113      1
   114   110   114      1
   115   110   115      1
   116   115   116      1
   117   115   117      1
   118   115   118      1
   119   116   119      1
   120   116   120      1
   121   116   121      1
   122   121   122      1
   123   121   123      1
   124   121   124      1
   125   122   125      1
   126   122   126      1
   127   122   127      1
   128   127   128      1
   129   127   129      1
   130   127   130      1
   131   128   131      1
   132   128   132      1
   133   128   133      1
   134   133   134      1
   135   133   135      1
   136   133   136      1
   137   134   137      1
   138   134   138      1
   139   134   139      1
   140   139   140      1
   141   139   141      1
   142   139   142      1
   143   140   143      1
   144   140   144      1
   145   140   145      H
