###
### Created by PolyChef-cpp17 on Thu Feb 27 19:40:28 2025
###

@<TRIPOS>MOLECULE
NO_INFO
308 307 1 0 0
SMALL
USER_CHARGES


@<TRIPOS>ATOM
      1 C          69.2798  191.7487  120.6551 C.3       0        0    0.0000
      2 C          68.4513  190.5975  120.0742 C.3       0        0    0.0000
      3 H          68.8875  192.7103  120.3015 H         0        0    0.0000
      4 H          70.3162  191.6821  120.3014 H         0        0    0.0000
      5 H          68.4069  189.7674  120.7901 H         0        0    0.0000
      6 H          67.4176  190.9249  119.9070 H         0        0    0.0000
      7 C          69.0383  190.0668  118.7210 C.3       1        0    0.0000
      8 C          69.6362  191.1903  117.8669 C.3       1        0    0.0000
      9 H          69.8041  189.3122  118.9395 H         1        0    0.0000
     10 H          68.2417  189.5558  118.1662 H         1        0    0.0000
     11 H          68.9460  192.0422  117.8293 H         1        0    0.0000
     12 H          70.5642  191.5565  118.3232 H         1        0    0.0000
     13 C          69.9433  190.7238  116.4021 C.3       2        0    0.0000
     14 C          69.8873  191.8820  115.3999 C.3       2        0    0.0000
     15 H          70.9352  190.2555  116.3808 H         2        0    0.0000
     16 H          69.2220  189.9469  116.1199 H         2        0    0.0000
     17 H          68.9680  192.4624  115.5468 H         2        0    0.0000
     18 H          70.7248  192.5694  115.5722 H         2        0    0.0000
     19 C          69.9391  191.3850  113.9141 C.3       3        0    0.0000
     20 C          69.8240  192.5384  112.9114 C.3       3        0    0.0000
     21 H          70.8787  190.8412  113.7557 H         3        0    0.0000
     22 H          69.1273  190.6647  113.7536 H         3        0    0.0000
     23 H          68.8902  193.0896  113.0776 H         3        0    0.0000
     24 H          70.6428  193.2525  113.0639 H         3        0    0.0000
     25 C          69.8587  192.0397  111.4256 C.3       4        0    0.0000
     26 C          69.9565  193.1978  110.4264 C.3       4        0    0.0000
     27 H          70.7119  191.3615  111.3001 H         4        0    0.0000
     28 H          68.9552  191.4491  111.2297 H         4        0    0.0000
     29 H          69.0883  193.8600  110.5319 H         4        0    0.0000
     30 H          70.8443  193.8056  110.6407 H         4        0    0.0000
     31 C          70.0329  192.6974  108.9427 C.3       5        0    0.0000
     32 C          69.0288  193.4163  108.0349 C.3       5        0    0.0000
     33 H          71.0534  192.8502  108.5701 H         5        0    0.0000
     34 H          69.8494  191.6159  108.9244 H         5        0    0.0000
     35 H          68.0645  193.5189  108.5477 H         5        0    0.0000
     36 H          69.3795  194.4327  107.8169 H         5        0    0.0000
     37 C          68.8032  192.6584  106.6813 C.3       6        0    0.0000
     38 C          69.2353  193.4919  105.4699 C.3       6        0    0.0000
     39 H          69.3618  191.7146  106.7071 H         6        0    0.0000
     40 H          67.7418  192.3940  106.5968 H         6        0    0.0000
     41 H          68.4052  194.1258  105.1341 H         6        0    0.0000
     42 H          70.0536  194.1666  105.7501 H         6        0    0.0000
     43 C          69.7054  192.5980  104.2709 C.3       7        0    0.0000
     44 C          69.1991  193.1218  102.9224 C.3       7        0    0.0000
     45 H          70.8016  192.5554  104.2703 H         7        0    0.0000
     46 H          69.3503  191.5729  104.4336 H         7        0    0.0000
     47 H          68.1274  193.3476  102.9850 H         7        0    0.0000
     48 H          69.7050  194.0620  102.6701 H         7        0    0.0000
     49 C          69.4321  192.0951  101.7609 C.3       8        0    0.0000
     50 C          69.2834  192.7389  100.3780 C.3       8        0    0.0000
     51 H          70.4340  191.6612  101.8682 H         8        0    0.0000
     52 H          68.7180  191.2695  101.8703 H         8        0    0.0000
     53 H          68.2592  193.1082  100.2432 H         8        0    0.0000
     54 H          69.9457  193.6096  100.2953 H         8        0    0.0000
     55 C          69.6167  191.7385   99.2180 C.3       9        0    0.0000
     56 C          69.4165  192.3662   97.8342 C.3       9        0    0.0000
     57 H          70.6539  191.3994   99.3307 H         9        0    0.0000
     58 H          68.9816  190.8503   99.3237 H         9        0    0.0000
     59 H          68.3819  192.7145   97.7253 H         9        0    0.0000
     60 H          70.0591  193.2487   97.7249 H         9        0    0.0000
     61 C          69.7362  191.3615   96.6742 C.3      10        0    0.0000
     62 C          69.5306  191.9875   95.2904 C.3      10        0    0.0000
     63 H          70.7721  191.0163   96.7808 H        10        0    0.0000
     64 H          69.0965  190.4773   96.7859 H        10        0    0.0000
     65 H          68.4944  192.3316   95.1834 H        10        0    0.0000
     66 H          70.1695  192.8723   95.1791 H        10        0    0.0000
     67 C          69.8518  190.9832   94.1303 C.3      11        0    0.0000
     68 C          69.6474  191.6096   92.7465 C.3      11        0    0.0000
     69 H          70.8876  190.6383   94.2379 H        11        0    0.0000
     70 H          69.2122  190.0987   94.2411 H        11        0    0.0000
     71 H          68.6110  191.9526   92.6383 H        11        0    0.0000
     72 H          70.2855  192.4951   92.6365 H        11        0    0.0000
     73 C          69.9712  190.6061   91.5865 C.3      12        0    0.0000
     74 C          69.8078  191.2453   90.2031 C.3      12        0    0.0000
     75 H          70.9973  190.2391   91.7125 H        12        0    0.0000
     76 H          69.3113  189.7345   91.6784 H        12        0    0.0000
     77 H          68.7933  191.6479   90.0921 H        12        0    0.0000
     78 H          70.4964  192.0927   90.0966 H        12        0    0.0000
     79 C          70.0769  190.2265   89.0424 C.3      13        0    0.0000
     80 C          69.9104  190.8648   87.6590 C.3      13        0    0.0000
     81 H          71.0922  189.8257   89.1520 H        13        0    0.0000
     82 H          69.3899  189.3780   89.1503 H        13        0    0.0000
     83 H          68.8999  191.2792   87.5551 H        13        0    0.0000
     84 H          70.6081  191.7038   87.5454 H        13        0    0.0000
     85 C          70.1583  189.8406   86.4984 C.3      14        0    0.0000
     86 C          69.9892  190.4783   85.1150 C.3      14        0    0.0000
     87 H          71.1695  189.4277   86.6012 H        14        0    0.0000
     88 H          69.4619  189.0007   86.6132 H        14        0    0.0000
     89 H          69.0349  191.0170   85.0633 H        14        0    0.0000
     90 H          70.7793  191.2198   84.9435 H        14        0    0.0000
     91 C          70.0334  189.4169   83.9622 C.3      15        0    0.0000
     92 C          69.8460  190.0524   82.5801 C.3      15        0    0.0000
     93 H          70.9932  188.8874   84.0057 H        15        0    0.0000
     94 H          69.2520  188.6680   84.1409 H        15        0    0.0000
     95 H          68.7856  190.0365   82.2994 H        15        0    0.0000
     96 H          70.1492  191.1064   82.6065 H        15        0    0.0000
     97 C          70.6735  189.3162   81.4706 C.3      16        0    0.0000
     98 C          70.4880  189.9532   80.0890 C.3      16        0    0.0000
     99 H          71.7337  189.3305   81.7522 H        16        0    0.0000
    100 H          70.3691  188.2626   81.4430 H        16        0    0.0000
    101 H          69.5208  189.6564   79.6647 H        16        0    0.0000
    102 H          70.4708  191.0465   80.1780 H        16        0    0.0000
    103 C          71.6247  189.5455   79.0894 C.3      17        0    0.0000
    104 C          71.4159  190.1474   77.6955 C.3      17        0    0.0000
    105 H          72.5891  189.8706   79.4989 H        17        0    0.0000
    106 H          71.6629  188.4509   79.0246 H        17        0    0.0000
    107 H          70.4237  189.8768   77.3136 H        17        0    0.0000
    108 H          71.4443  191.2427   77.7506 H        17        0    0.0000
    109 C          72.5003  189.6648   76.6714 C.3      18        0    0.0000
    110 C          72.3083  190.2890   75.2848 C.3      18        0    0.0000
    111 H          73.4935  189.9167   77.0631 H        18        0    0.0000
    112 H          72.4577  188.5708   76.6006 H        18        0    0.0000
    113 H          71.3750  189.9277   74.8356 H        18        0    0.0000
    114 H          72.2146  191.3785   75.3725 H        18        0    0.0000
    115 C          73.4959  189.9604   74.3158 C.3      19        0    0.0000
    116 C          73.3174  190.6075   72.9380 C.3      19        0    0.0000
    117 H          74.4317  190.3035   74.7742 H        19        0    0.0000
    118 H          73.5767  188.8712   74.2122 H        19        0    0.0000
    119 H          72.4491  190.1726   72.4277 H        19        0    0.0000
    120 H          73.1129  191.6796   73.0495 H        19        0    0.0000
    121 C          74.5812  190.4263   72.0283 C.3      20        0    0.0000
    122 C          74.6121  191.4298   70.8703 C.3      20        0    0.0000
    123 H          75.4807  190.5373   72.6464 H        20        0    0.0000
    124 H          74.5918  189.4010   71.6379 H        20        0    0.0000
    125 H          73.8149  191.2005   70.1524 H        20        0    0.0000
    126 H          74.4172  192.4424   71.2448 H        20        0    0.0000
    127 C          75.9869  191.4257   70.1170 C.3      21        0    0.0000
    128 C          76.4813  192.8419   69.8027 C.3      21        0    0.0000
    129 H          76.7256  190.8972   70.7323 H        21        0    0.0000
    130 H          75.8800  190.8500   69.1893 H        21        0    0.0000
    131 H          76.1114  193.1601   68.8201 H        21        0    0.0000
    132 H          76.0791  193.5521   70.5358 H        21        0    0.0000
    133 C          78.0458  192.9402   69.8096 C.3      22        0    0.0000
    134 C          78.6389  192.8634   68.3985 C.3      22        0    0.0000
    135 H          78.3389  193.8819   70.2901 H        22        0    0.0000
    136 H          78.4482  192.1308   70.4314 H        22        0    0.0000
    137 H          77.9178  192.4027   67.7119 H        22        0    0.0000
    138 H          78.8356  193.8732   68.0176 H        22        0    0.0000
    139 C          79.9720  192.0396   68.3583 C.3      23        0    0.0000
    140 C          81.2031  192.9352   68.1803 C.3      23        0    0.0000
    141 H          80.0586  191.4615   69.2867 H        23        0    0.0000
    142 H          79.9140  191.3127   67.5388 H        23        0    0.0000
    143 H          81.4942  192.9684   67.1231 H        23        0    0.0000
    144 H          80.9648  193.9649   68.4740 H        23        0    0.0000
    145 C          82.4262  192.4387   69.0258 C.3      24        0    0.0000
    146 C          83.7349  192.4714   68.2288 C.3      24        0    0.0000
    147 H          82.5152  193.0665   69.9211 H        24        0    0.0000
    148 H          82.2239  191.4186   69.3752 H        24        0    0.0000
    149 H          83.5814  192.0319   67.2354 H        24        0    0.0000
    150 H          84.0519  193.5093   68.0685 H        24        0    0.0000
    151 C          84.8900  191.6961   68.9513 C.3      25        0    0.0000
    152 C          86.1050  192.5888   69.2270 C.3      25        0    0.0000
    153 H          84.5048  191.2840   69.8923 H        25        0    0.0000
    154 H          85.1846  190.8411   68.3302 H        25        0    0.0000
    155 H          86.8525  192.4620   68.4341 H        25        0    0.0000
    156 H          85.8070  193.6445   69.2131 H        25        0    0.0000
    157 C          86.7746  192.2709   70.6083 C.3      26        0    0.0000
    158 C          88.2346  191.8294   70.4581 C.3      26        0    0.0000
    159 H          86.7149  193.1631   71.2439 H        26        0    0.0000
    160 H          86.1944  191.4869   71.1105 H        26        0    0.0000
    161 H          88.3540  191.2275   69.5487 H        26        0    0.0000
    162 H          88.8829  192.7068   70.3425 H        26        0    0.0000
    163 C          88.7316  190.9923   71.6869 C.3      27        0    0.0000
    164 C          89.7399  191.7637   72.5456 C.3      27        0    0.0000
    165 H          87.8636  190.7047   72.2930 H        27        0    0.0000
    166 H          89.1830  190.0616   71.3214 H        27        0    0.0000
    167 H          90.7633  191.4816   72.2688 H        27        0    0.0000
    168 H          89.6482  192.8406   72.3573 H        27        0    0.0000
    169 C          89.5399  191.4998   74.0778 C.3      28        0    0.0000
    170 C          90.7898  191.8453   74.8947 C.3      28        0    0.0000
    171 H          88.6853  192.0908   74.4298 H        28        0    0.0000
    172 H          89.2750  190.4452   74.2234 H        28        0    0.0000
    173 H          91.6656  191.3332   74.4771 H        28        0    0.0000
    174 H          90.9946  192.9213   74.8322 H        28        0    0.0000
    175 C          90.6427  191.4458   76.4034 C.3      29        0    0.0000
    176 C          91.6866  192.1329   77.2907 C.3      29        0    0.0000
    177 H          89.6320  191.7061   76.7412 H        29        0    0.0000
    178 H          90.7333  190.3560   76.4911 H        29        0    0.0000
    179 H          92.6961  191.8248   76.9915 H        29        0    0.0000
    180 H          91.6366  193.2206   77.1569 H        29        0    0.0000
    181 C          91.4864  191.8009   78.8096 C.3      30        0    0.0000
    182 C          92.0047  192.9183   79.7217 C.3      30        0    0.0000
    183 H          90.4193  191.6277   78.9961 H        30        0    0.0000
    184 H          92.0027  190.8599   79.0369 H        30        0    0.0000
    185 H          93.0944  193.0046   79.6287 H        30        0    0.0000
    186 H          91.5846  193.8828   79.4108 H        30        0    0.0000
    187 C          91.6439  192.6717   81.2272 C.3      31        0    0.0000
    188 C          92.8764  192.7276   82.1365 C.3      31        0    0.0000
    189 H          90.9094  193.4231   81.5424 H        31        0    0.0000
    190 H          91.1536  191.6945   81.3178 H        31        0    0.0000
    191 H          93.7593  192.3639   81.5963 H        31        0    0.0000
    192 H          93.0870  193.7660   82.4212 H        31        0    0.0000
    193 C          92.6934  191.8738   83.4384 C.3      32        0    0.0000
    194 C          92.3689  192.7402   84.6604 C.3      32        0    0.0000
    195 H          91.8924  191.1429   83.2722 H        32        0    0.0000
    196 H          93.6113  191.3002   83.6170 H        32        0    0.0000
    197 H          93.2875  192.9656   85.2163 H        32        0    0.0000
    198 H          91.9511  193.7024   84.3391 H        32        0    0.0000
    199 C          91.3504  192.0449   85.6281 C.3      33        0    0.0000
    200 C          91.6363  192.3645   87.0996 C.3      33        0    0.0000
    201 H          90.3354  192.3665   85.3637 H        33        0    0.0000
    202 H          91.3903  190.9609   85.4640 H        33        0    0.0000
    203 H          92.7062  192.2438   87.3097 H        33        0    0.0000
    204 H          91.3898  193.4123   87.3117 H        33        0    0.0000
    205 C          90.8229  191.4465   88.0758 C.3      34        0    0.0000
    206 C          91.1060  191.7685   89.5473 C.3      34        0    0.0000
    207 H          89.7531  191.5652   87.8639 H        34        0    0.0000
    208 H          91.0714  190.3988   87.8655 H        34        0    0.0000
    209 H          92.1756  191.6480   89.7597 H        34        0    0.0000
    210 H          90.8594  192.8167   89.7571 H        34        0    0.0000
    211 C          90.2906  190.8523   90.5235 C.3      35        0    0.0000
    212 C          90.5758  191.1725   91.9950 C.3      35        0    0.0000
    213 H          89.2210  190.9744   90.3125 H        35        0    0.0000
    214 H          90.5357  189.8041   90.3123 H        35        0    0.0000
    215 H          91.6459  191.0531   92.2053 H        35        0    0.0000
    216 H          90.3280  192.2200   92.2069 H        35        0    0.0000
    217 C          89.7633  190.2536   92.9712 C.3      36        0    0.0000
    218 C          90.0483  190.5740   94.4427 C.3      36        0    0.0000
    219 H          88.6933  190.3728   92.7607 H        36        0    0.0000
    220 H          90.0112  189.2061   92.7594 H        36        0    0.0000
    221 H          91.1173  190.4481   94.6548 H        36        0    0.0000
    222 H          89.8068  191.6233   94.6528 H        36        0    0.0000
    223 C          89.2286  189.6615   95.4189 C.3      37        0    0.0000
    224 C          89.5157  189.9800   96.8903 C.3      37        0    0.0000
    225 H          88.1595  189.7890   95.2081 H        37        0    0.0000
    226 H          89.4685  188.6122   95.2074 H        37        0    0.0000
    227 H          88.8092  189.4439   97.5360 H        37        0    0.0000
    228 H          90.5191  189.6296   97.1622 H        37        0    0.0000
    229 C          89.4161  191.5142   97.1966 C.3      38        0    0.0000
    230 C          89.7100  191.8334   98.6665 C.3      38        0    0.0000
    231 H          90.1190  192.0508   96.5473 H        38        0    0.0000
    232 H          88.4110  191.8635   96.9295 H        38        0    0.0000
    233 H          90.7812  191.7130   98.8707 H        38        0    0.0000
    234 H          89.4643  192.8809   98.8804 H        38        0    0.0000
    235 C          88.9024  190.9146   99.6470 C.3      39        0    0.0000
    236 C          89.5104  190.8903  101.0537 C.3      39        0    0.0000
    237 H          87.8655  191.2702   99.6914 H        39        0    0.0000
    238 H          88.8698  189.8989   99.2336 H        39        0    0.0000
    239 H          90.5759  190.6349  100.9986 H        39        0    0.0000
    240 H          89.4485  191.8871  101.5075 H        39        0    0.0000
    241 C          88.7922  189.8616  101.9936 C.3      40        0    0.0000
    242 C          89.3080  189.9333  103.4351 C.3      40        0    0.0000
    243 H          87.7126  190.0552  101.9703 H        40        0    0.0000
    244 H          88.9399  188.8518  101.5910 H        40        0    0.0000
    245 H          88.7265  189.2597  104.0766 H        40        0    0.0000
    246 H          90.3490  189.5902  103.4796 H        40        0    0.0000
    247 C          89.2286  191.3844  104.0229 C.3      41        0    0.0000
    248 C          89.6780  191.4434  105.4870 C.3      41        0    0.0000
    249 H          89.8519  192.0484  103.4111 H        41        0    0.0000
    250 H          88.1974  191.7473  103.9310 H        41        0    0.0000
    251 H          90.7582  191.2651  105.5564 H        41        0    0.0000
    252 H          89.4971  192.4452  105.8959 H        41        0    0.0000
    253 C          88.9339  190.3913  106.3797 C.3      42        0    0.0000
    254 C          89.5085  190.3237  107.7989 C.3      42        0    0.0000
    255 H          87.8684  190.6499  106.4172 H        42        0    0.0000
    256 H          89.0026  189.4077  105.8987 H        42        0    0.0000
    257 H          89.4330  189.3003  108.1869 H        42        0    0.0000
    258 H          90.5757  190.5775  107.7852 H        42        0    0.0000
    259 C          88.7711  191.2936  108.7853 C.3      43        0    0.0000
    260 C          89.2734  191.1491  110.2261 C.3      43        0    0.0000
    261 H          88.9129  192.3249  108.4392 H        43        0    0.0000
    262 H          87.6937  191.0916  108.7405 H        43        0    0.0000
    263 H          90.3059  191.5118  110.3026 H        43        0    0.0000
    264 H          88.6703  191.7712  110.8989 H        43        0    0.0000
    265 C          89.2209  189.6647  110.7275 C.3      44        0    0.0000
    266 C          89.6808  189.5267  112.1830 C.3      44        0    0.0000
    267 H          88.1949  189.2914  110.6202 H        44        0    0.0000
    268 H          89.8505  189.0482  110.0740 H        44        0    0.0000
    269 H          89.5034  188.5040  112.5382 H        44        0    0.0000
    270 H          90.7614  189.7020  112.2543 H        44        0    0.0000
    271 C          88.9425  190.5280  113.1368 C.3      45        0    0.0000
    272 C          89.5806  190.5814  114.5293 C.3      45        0    0.0000
    273 H          88.9534  191.5252  112.6796 H        45        0    0.0000
    274 H          87.8899  190.2296  113.2166 H        45        0    0.0000
    275 H          90.1765  189.6772  114.7049 H        45        0    0.0000
    276 H          90.2711  191.4314  114.5943 H        45        0    0.0000
    277 C          88.5112  190.7109  115.6682 C.3      46        0    0.0000
    278 C          89.1395  190.6479  117.0648 C.3      46        0    0.0000
    279 H          87.9718  191.6576  115.5408 H        46        0    0.0000
    280 H          87.7718  189.9089  115.5519 H        46        0    0.0000
    281 H          89.7529  191.5400  117.2419 H        46        0    0.0000
    282 H          88.3543  190.6482  117.8309 H        46        0    0.0000
    283 C          90.0328  189.3741  117.2575 C.3      47        0    0.0000
    284 C          90.7229  189.3502  118.6257 C.3      47        0    0.0000
    285 H          89.4067  188.4815  117.1363 H        47        0    0.0000
    286 H          90.7828  189.3439  116.4573 H        47        0    0.0000
    287 H          90.5143  188.4015  119.1357 H        47        0    0.0000
    288 H          91.8112  189.4072  118.4992 H        47        0    0.0000
    289 C          90.2587  190.5313  119.5460 C.3      48        0    0.0000
    290 C          90.5870  190.2812  121.0220 C.3      48        0    0.0000
    291 H          90.7407  191.4559  119.2049 H        48        0    0.0000
    292 H          89.1783  190.6742  119.4199 H        48        0    0.0000
    293 H          91.3800  189.5281  121.1086 H        48        0    0.0000
    294 H          90.9728  191.1993  121.4824 H        48        0    0.0000
    295 C          89.3376  189.7951  121.8345 C.3      49        0    0.0000
    296 C          89.2605  190.4400  123.2227 C.3      49        0    0.0000
    297 H          88.4312  190.0264  121.2614 H        49        0    0.0000
    298 H          89.3803  188.7029  121.9290 H        49        0    0.0000
    299 H          88.3812  190.0671  123.7624 H        49        0    0.0000
    300 H          90.1382  190.1584  123.8176 H        49        0    0.0000
    301 C          89.1817  192.0039  123.1477 C.3      50        0    0.0000
    302 C          88.0248  192.5677  123.9800 C.3      50        0    0.0000
    303 H          90.1342  192.4230  123.4950 H        50        0    0.0000
    304 H          89.0702  192.3024  122.0979 H        50        0    0.0000
    305 H          87.0723  192.1486  123.6327 H        50        0    0.0000
    306 H          88.1362  192.2693  125.0298 H        50        0    0.0000
    307 H          87.9700  193.6551  123.9279 H        50        0    0.0000
    308 H          69.2798  191.7487  121.7450 H         0        0    0.0000
@<TRIPOS>BOND
     1     1     2      1
     2     1     3      1
     3     1     4      1
     4     1   308      H
     5     2     5      1
     6     2     6      1
     7     2     7      1
     8     7     8      1
     9     7     9      1
    10     7    10      1
    11     8    11      1
    12     8    12      1
    13     8    13      1
    14    13    14      1
    15    13    15      1
    16    13    16      1
    17    14    17      1
    18    14    18      1
    19    14    19      1
    20    19    20      1
    21    19    21      1
    22    19    22      1
    23    20    23      1
    24    20    24      1
    25    20    25      1
    26    25    26      1
    27    25    27      1
    28    25    28      1
    29    26    29      1
    30    26    30      1
    31    26    31      1
    32    31    32      1
    33    31    33      1
    34    31    34      1
    35    32    35      1
    36    32    36      1
    37    32    37      1
    38    37    38      1
    39    37    39      1
    40    37    40      1
    41    38    41      1
    42    38    42      1
    43    38    43      1
    44    43    44      1
    45    43    45      1
    46    43    46      1
    47    44    47      1
    48    44    48      1
    49    44    49      1
    50    49    50      1
    51    49    51      1
    52    49    52      1
    53    50    53      1
    54    50    54      1
    55    50    55      1
    56    55    56      1
    57    55    57      1
    58    55    58      1
    59    56    59      1
    60    56    60      1
    61    56    61      1
    62    61    62      1
    63    61    63      1
    64    61    64      1
    65    62    65      1
    66    62    66      1
    67    62    67      1
    68    67    68      1
    69    67    69      1
    70    67    70      1
    71    68    71      1
    72    68    72      1
    73    68    73      1
    74    73    74      1
    75    73    75      1
    76    73    76      1
    77    74    77      1
    78    74    78      1
    79    74    79      1
    80    79    80      1
    81    79    81      1
    82    79    82      1
    83    80    83      1
    84    80    84      1
    85    80    85      1
    86    85    86      1
    87    85    87      1
    88    85    88      1
    89    86    89      1
    90    86    90      1
    91    86    91      1
    92    91    92      1
    93    91    93      1
    94    91    94      1
    95    92    95      1
    96    92    96      1
    97    92    97      1
    98    97    98      1
    99    97    99      1
   100    97   100      1
   101    98   101      1
   102    98   102      1
   103    98   103      1
   104   103   104      1
   105   103   105      1
   106   103   106      1
   107   104   107      1
   108   104   108      1
   109   104   109      1
   110   109   110      1
   111   109   111      1
   112   109   112      1
   113   110   113      1
   114   110   114      1
   115   110   115      1
   116   115   116      1
   117   115   117      1
   118   115   118      1
   119   116   119      1
   120   116   120      1
   121   116   121      1
   122   121   122      1
   123   121   123      1
   124   121   124      1
   125   122   125      1
   126   122   126      1
   127   122   127      1
   128   127   128      1
   129   127   129      1
   130   127   130      1
   131   128   131      1
   132   128   132      1
   133   128   133      1
   134   133   134      1
   135   133   135      1
   136   133   136      1
   137   134   137      1
   138   134   138      1
   139   134   139      1
   140   139   140      1
   141   139   141      1
   142   139   142      1
   143   140   143      1
   144   140   144      1
   145   140   145      1
   146   145   146      1
   147   145   147      1
   148   145   148      1
   149   146   149      1
   150   146   150      1
   151   146   151      1
   152   151   152      1
   153   151   153      1
   154   151   154      1
   155   152   155      1
   156   152   156      1
   157   152   157      1
   158   157   158      1
   159   157   159      1
   160   157   160      1
   161   158   161      1
   162   158   162      1
   163   158   163      1
   164   163   164      1
   165   163   165      1
   166   163   166      1
   167   164   167      1
   168   164   168      1
   169   164   169      1
   170   169   170      1
   171   169   171      1
   172   169   172      1
   173   170   173      1
   174   170   174      1
   175   170   175      1
   176   175   176      1
   177   175   177      1
   178   175   178      1
   179   176   179      1
   180   176   180      1
   181   176   181      1
   182   181   182      1
   183   181   183      1
   184   181   184      1
   185   182   185      1
   186   182   186      1
   187   182   187      1
   188   187   188      1
   189   187   189      1
   190   187   190      1
   191   188   191      1
   192   188   192      1
   193   188   193      1
   194   193   194      1
   195   193   195      1
   196   193   196      1
   197   194   197      1
   198   194   198      1
   199   194   199      1
   200   199   200      1
   201   199   201      1
   202   199   202      1
   203   200   203      1
   204   200   204      1
   205   200   205      1
   206   205   206      1
   207   205   207      1
   208   205   208      1
   209   206   209      1
   210   206   210      1
   211   206   211      1
   212   211   212      1
   213   211   213      1
   214   211   214      1
   215   212   215      1
   216   212   216      1
   217   212   217      1
   218   217   218      1
   219   217   219      1
   220   217   220      1
   221   218   221      1
   222   218   222      1
   223   218   223      1
   224   223   224      1
   225   223   225      1
   226   223   226      1
   227   224   227      1
   228   224   228      1
   229   224   229      1
   230   229   230      1
   231   229   231      1
   232   229   232      1
   233   230   233      1
   234   230   234      1
   235   230   235      1
   236   235   236      1
   237   235   237      1
   238   235   238      1
   239   236   239      1
   240   236   240      1
   241   236   241      1
   242   241   242      1
   243   241   243      1
   244   241   244      1
   245   242   245      1
   246   242   246      1
   247   242   247      1
   248   247   248      1
   249   247   249      1
   250   247   250      1
   251   248   251      1
   252   248   252      1
   253   248   253      1
   254   253   254      1
   255   253   255      1
   256   253   256      1
   257   254   257      1
   258   254   258      1
   259   254   259      1
   260   259   260      1
   261   259   261      1
   262   259   262      1
   263   260   263      1
   264   260   264      1
   265   260   265      1
   266   265   266      1
   267   265   267      1
   268   265   268      1
   269   266   269      1
   270   266   270      1
   271   266   271      1
   272   271   272      1
   273   271   273      1
   274   271   274      1
   275   272   275      1
   276   272   276      1
   277   272   277      1
   278   277   278      1
   279   277   279      1
   280   277   280      1
   281   278   281      1
   282   278   282      1
   283   278   283      1
   284   283   284      1
   285   283   285      1
   286   283   286      1
   287   284   287      1
   288   284   288      1
   289   284   289      1
   290   289   290      1
   291   289   291      1
   292   289   292      1
   293   290   293      1
   294   290   294      1
   295   290   295      1
   296   295   296      1
   297   295   297      1
   298   295   298      1
   299   296   299      1
   300   296   300      1
   301   296   301      1
   302   301   302      1
   303   301   303      1
   304   301   304      1
   305   302   305      1
   306   302   306      1
   307   302   307      H
