###
### Created by PolyChef-cpp17 on Thu Feb 27 19:40:30 2025
###

@<TRIPOS>MOLECULE
NO_INFO
170 169 1 0 0
SMALL
USER_CHARGES


@<TRIPOS>ATOM
      1 C          59.2798   35.8687  120.6551 C.3       0        0    0.0000
      2 C          58.4513   34.7175  120.0742 C.3       0        0    0.0000
      3 H          58.8875   36.8302  120.3015 H         0        0    0.0000
      4 H          60.3162   35.8021  120.3014 H         0        0    0.0000
      5 H          58.4072   33.8873  120.7900 H         0        0    0.0000
      6 H          57.4176   35.0448  119.9073 H         0        0    0.0000
      7 C          59.0381   34.1871  118.7207 C.3       1        0    0.0000
      8 C          59.6345   35.3109  117.8661 C.3       1        0    0.0000
      9 H          59.8047   33.4332  118.9390 H         1        0    0.0000
     10 H          58.2417   33.6753  118.1665 H         1        0    0.0000
     11 H          58.9424   36.1613  117.8268 H         1        0    0.0000
     12 H          60.5611   35.6798  118.3232 H         1        0    0.0000
     13 C          59.9445   34.8435  116.4023 C.3       2        0    0.0000
     14 C          59.8848   36.0000  115.3983 C.3       2        0    0.0000
     15 H          60.9381   34.3790  116.3824 H         2        0    0.0000
     16 H          59.2264   34.0634  116.1207 H         2        0    0.0000
     17 H          58.9630   36.5769  115.5435 H         2        0    0.0000
     18 H          60.7193   36.6910  115.5704 H         2        0    0.0000
     19 C          59.9399   35.5010  113.9133 C.3       3        0    0.0000
     20 C          59.8061   36.6508  112.9088 C.3       3        0    0.0000
     21 H          60.8866   34.9702  113.7535 H         3        0    0.0000
     22 H          59.1379   34.7691  113.7562 H         3        0    0.0000
     23 H          58.8655   37.1898  113.0770 H         3        0    0.0000
     24 H          60.6157   37.3762  113.0573 H         3        0    0.0000
     25 C          59.8428   36.1498  111.4238 C.3       4        0    0.0000
     26 C          59.9444   37.3061  110.4230 C.3       4        0    0.0000
     27 H          60.6950   35.4699  111.3010 H         4        0    0.0000
     28 H          58.9387   35.5604  111.2271 H         4        0    0.0000
     29 H          59.0734   37.9660  110.5209 H         4        0    0.0000
     30 H          60.8287   37.9170  110.6425 H         4        0    0.0000
     31 C          60.0330   36.8029  108.9409 C.3       5        0    0.0000
     32 C          59.0292   37.5126  108.0256 C.3       5        0    0.0000
     33 H          61.0545   36.9622  108.5740 H         5        0    0.0000
     34 H          59.8574   35.7202  108.9240 H         5        0    0.0000
     35 H          58.0630   37.6152  108.5350 H         5        0    0.0000
     36 H          59.3770   38.5287  107.8021 H         5        0    0.0000
     37 C          58.8100   36.7452  106.6763 C.3       6        0    0.0000
     38 C          59.2528   37.5682  105.4615 C.3       6        0    0.0000
     39 H          59.3654   35.7999  106.7129 H         6        0    0.0000
     40 H          57.7484   36.4836  106.5867 H         6        0    0.0000
     41 H          58.4286   38.2057  105.1184 H         6        0    0.0000
     42 H          60.0747   38.2390  105.7410 H         6        0    0.0000
     43 C          59.7217   36.6637  104.2701 C.3       7        0    0.0000
     44 C          59.2374   37.1910  102.9149 C.3       7        0    0.0000
     45 H          60.8171   36.6044  104.2810 H         7        0    0.0000
     46 H          59.3494   35.6446  104.4320 H         7        0    0.0000
     47 H          58.1681   37.4309  102.9650 H         7        0    0.0000
     48 H          59.7583   38.1240  102.6664 H         7        0    0.0000
     49 C          59.4701   36.1588  101.7582 C.3       8        0    0.0000
     50 C          59.3170   36.7952  100.3724 C.3       8        0    0.0000
     51 H          60.4731   35.7277  101.8655 H         8        0    0.0000
     52 H          58.7579   35.3323  101.8734 H         8        0    0.0000
     53 H          58.2933   37.1665  100.2399 H         8        0    0.0000
     54 H          59.9813   37.6636  100.2818 H         8        0    0.0000
     55 C          59.6425   35.7873   99.2166 C.3       9        0    0.0000
     56 C          59.4512   36.4120   97.8302 C.3       9        0    0.0000
     57 H          60.6760   35.4381   99.3326 H         9        0    0.0000
     58 H          58.9982   34.9059   99.3242 H         9        0    0.0000
     59 H          58.4200   36.7688   97.7173 H         9        0    0.0000
     60 H          60.1017   37.2885   97.7195 H         9        0    0.0000
     61 C          59.7653   35.4006   96.6744 C.3      10        0    0.0000
     62 C          59.5704   36.0242   95.2879 C.3      10        0    0.0000
     63 H          60.7975   35.0460   96.7856 H        10        0    0.0000
     64 H          59.1169   34.5229   96.7866 H        10        0    0.0000
     65 H          58.5388   36.3807   95.1775 H        10        0    0.0000
     66 H          60.2204   36.9006   95.1749 H        10        0    0.0000
     67 C          59.8816   35.0118   94.1321 C.3      11        0    0.0000
     68 C          59.6926   35.6372   92.7457 C.3      11        0    0.0000
     69 H          60.9117   34.6519   94.2452 H        11        0    0.0000
     70 H          59.2284   34.1374   94.2426 H        11        0    0.0000
     71 H          58.6621   35.9959   92.6321 H        11        0    0.0000
     72 H          60.3447   36.5126   92.6358 H        11        0    0.0000
     73 C          60.0058   34.6255   91.5899 C.3      12        0    0.0000
     74 C          59.8111   35.2492   90.2035 C.3      12        0    0.0000
     75 H          61.0378   34.2702   91.7010 H        12        0    0.0000
     76 H          59.3568   33.7483   91.7023 H        12        0    0.0000
     77 H          58.7798   35.6065   90.0932 H        12        0    0.0000
     78 H          60.4618   36.1252   90.0903 H        12        0    0.0000
     79 C          60.1214   34.2366   89.0477 C.3      13        0    0.0000
     80 C          59.9315   34.8616   87.6612 C.3      13        0    0.0000
     81 H          61.1516   33.8766   89.1600 H        13        0    0.0000
     82 H          59.4683   33.3622   89.1588 H        13        0    0.0000
     83 H          58.9007   35.2197   87.5481 H        13        0    0.0000
     84 H          60.5830   35.7373   87.5509 H        13        0    0.0000
     85 C          60.2446   33.8499   86.5054 C.3      14        0    0.0000
     86 C          60.0522   34.4743   85.1190 C.3      14        0    0.0000
     87 H          61.2760   33.4933   86.6175 H        14        0    0.0000
     88 H          59.5943   32.9735   86.6169 H        14        0    0.0000
     89 H          59.0220   34.8350   85.0086 H        14        0    0.0000
     90 H          60.7058   35.3480   85.0059 H        14        0    0.0000
     91 C          60.3591   33.4606   83.9632 C.3      15        0    0.0000
     92 C          60.1685   34.0855   82.5768 C.3      15        0    0.0000
     93 H          61.3888   33.0988   84.0744 H        15        0    0.0000
     94 H          59.7044   32.5875   84.0755 H        15        0    0.0000
     95 H          59.1362   34.4387   82.4621 H        15        0    0.0000
     96 H          60.8161   34.9643   82.4680 H        15        0    0.0000
     97 C          60.4884   33.0759   81.4210 C.3      16        0    0.0000
     98 C          60.3011   33.7018   80.0346 C.3      16        0    0.0000
     99 H          61.5199   32.7208   81.5372 H        16        0    0.0000
    100 H          59.8391   32.1982   81.5283 H        16        0    0.0000
    101 H          61.2376   33.6440   79.4661 H        16        0    0.0000
    102 H          59.5518   33.1379   79.4654 H        16        0    0.0000
    103 C          59.8510   35.2013   80.1156 C.3      17        0    0.0000
    104 C          59.6731   35.8300   78.7292 C.3      17        0    0.0000
    105 H          58.9108   35.2583   80.6779 H        17        0    0.0000
    106 H          60.5968   35.7638   80.6908 H        17        0    0.0000
    107 H          60.6335   35.8502   78.1992 H        17        0    0.0000
    108 H          58.9920   35.2193   78.1237 H        17        0    0.0000
    109 C          59.1083   37.2903   78.8071 C.3      18        0    0.0000
    110 C          58.9314   37.9194   77.4208 C.3      18        0    0.0000
    111 H          58.1476   37.2700   79.3363 H        18        0    0.0000
    112 H          59.7890   37.9008   79.4132 H        18        0    0.0000
    113 H          58.3828   38.8657   77.5043 H        18        0    0.0000
    114 H          59.9109   38.1601   76.9892 H        18        0    0.0000
    115 C          58.1626   36.9751   76.4335 C.3      19        0    0.0000
    116 C          58.3143   37.4143   74.9730 C.3      19        0    0.0000
    117 H          58.5370   35.9516   76.5594 H        19        0    0.0000
    118 H          57.1019   36.9592   76.7133 H        19        0    0.0000
    119 H          57.4463   38.0117   74.6677 H        19        0    0.0000
    120 H          59.1949   38.0593   74.8637 H        19        0    0.0000
    121 C          58.4567   36.1952   73.9978 C.3      20        0    0.0000
    122 C          59.0432   36.6018   72.6414 C.3      20        0    0.0000
    123 H          59.0929   35.4366   74.4705 H        20        0    0.0000
    124 H          57.4699   35.7365   73.8586 H        20        0    0.0000
    125 H          58.3693   37.3041   72.1355 H        20        0    0.0000
    126 H          59.9954   37.1273   72.7856 H        20        0    0.0000
    127 C          59.2838   35.3683   71.7043 C.3      21        0    0.0000
    128 C          58.6611   35.5624   70.3174 C.3      21        0    0.0000
    129 H          60.3638   35.2000   71.6115 H        21        0    0.0000
    130 H          58.8655   34.4740   72.1826 H        21        0    0.0000
    131 H          57.7435   36.1584   70.3971 H        21        0    0.0000
    132 H          59.3472   36.1252   69.6724 H        21        0    0.0000
    133 C          58.3193   34.1989   69.6235 C.3      22        0    0.0000
    134 C          59.3290   33.8347   68.5295 C.3      22        0    0.0000
    135 H          58.2910   33.4111   70.3866 H        22        0    0.0000
    136 H          57.3100   34.2618   69.1981 H        22        0    0.0000
    137 H          58.9439   34.1350   67.5471 H        22        0    0.0000
    138 H          60.2650   34.3860   68.6829 H        22        0    0.0000
    139 C          59.6456   32.2997   68.5004 C.3      23        0    0.0000
    140 C          59.3368   31.6686   67.1382 C.3      23        0    0.0000
    141 H          60.7031   32.1519   68.7523 H        23        0    0.0000
    142 H          59.0623   31.8033   69.2858 H        23        0    0.0000
    143 H          58.4234   32.1081   66.7185 H        23        0    0.0000
    144 H          60.1457   31.8873   66.4302 H        23        0    0.0000
    145 C          59.1532   30.1146   67.2313 C.3      24        0    0.0000
    146 C          59.3489   29.4244   65.8769 C.3      24        0    0.0000
    147 H          59.8678   29.7173   67.9627 H        24        0    0.0000
    148 H          58.1507   29.8997   67.6217 H        24        0    0.0000
    149 H          58.5710   29.7476   65.1741 H        24        0    0.0000
    150 H          60.3108   29.7196   65.4398 H        24        0    0.0000
    151 C          59.3057   27.8618   65.9947 C.3      25        0    0.0000
    152 C          58.9049   27.1908   64.6763 C.3      25        0    0.0000
    153 H          60.2923   27.5039   66.3142 H        25        0    0.0000
    154 H          58.5989   27.5863   66.7871 H        25        0    0.0000
    155 H          57.9546   27.6048   64.3172 H        25        0    0.0000
    156 H          59.6535   27.4036   63.9031 H        25        0    0.0000
    157 C          58.7564   25.6370   64.8217 C.3      26        0    0.0000
    158 C          59.5560   24.8751   63.7590 C.3      26        0    0.0000
    159 H          59.0880   25.3424   65.8250 H        26        0    0.0000
    160 H          57.6932   25.3753   64.7518 H        26        0    0.0000
    161 H          58.9744   24.0205   63.3916 H        26        0    0.0000
    162 H          59.7447   25.5229   62.8940 H        26        0    0.0000
    163 C          60.9283   24.3536   64.3087 C.3      27        0    0.0000
    164 C          61.2586   22.9447   63.8039 C.3      27        0    0.0000
    165 H          61.7179   25.0546   64.0109 H        27        0    0.0000
    166 H          60.8964   24.3624   65.4053 H        27        0    0.0000
    167 H          60.4691   22.2437   64.1017 H        27        0    0.0000
    168 H          61.2906   22.9359   62.7073 H        27        0    0.0000
    169 H          62.2129   22.5821   64.1861 H        27        0    0.0000
    170 H          59.2798   35.8687  121.7450 H         0        0    0.0000
@<TRIPOS>BOND
     1     1     2      1
     2     1     3      1
     3     1     4      1
     4     1   170      H
     5     2     5      1
     6     2     6      1
     7     2     7      1
     8     7     8      1
     9     7     9      1
    10     7    10      1
    11     8    11      1
    12     8    12      1
    13     8    13      1
    14    13    14      1
    15    13    15      1
    16    13    16      1
    17    14    17      1
    18    14    18      1
    19    14    19      1
    20    19    20      1
    21    19    21      1
    22    19    22      1
    23    20    23      1
    24    20    24      1
    25    20    25      1
    26    25    26      1
    27    25    27      1
    28    25    28      1
    29    26    29      1
    30    26    30      1
    31    26    31      1
    32    31    32      1
    33    31    33      1
    34    31    34      1
    35    32    35      1
    36    32    36      1
    37    32    37      1
    38    37    38      1
    39    37    39      1
    40    37    40      1
    41    38    41      1
    42    38    42      1
    43    38    43      1
    44    43    44      1
    45    43    45      1
    46    43    46      1
    47    44    47      1
    48    44    48      1
    49    44    49      1
    50    49    50      1
    51    49    51      1
    52    49    52      1
    53    50    53      1
    54    50    54      1
    55    50    55      1
    56    55    56      1
    57    55    57      1
    58    55    58      1
    59    56    59      1
    60    56    60      1
    61    56    61      1
    62    61    62      1
    63    61    63      1
    64    61    64      1
    65    62    65      1
    66    62    66      1
    67    62    67      1
    68    67    68      1
    69    67    69      1
    70    67    70      1
    71    68    71      1
    72    68    72      1
    73    68    73      1
    74    73    74      1
    75    73    75      1
    76    73    76      1
    77    74    77      1
    78    74    78      1
    79    74    79      1
    80    79    80      1
    81    79    81      1
    82    79    82      1
    83    80    83      1
    84    80    84      1
    85    80    85      1
    86    85    86      1
    87    85    87      1
    88    85    88      1
    89    86    89      1
    90    86    90      1
    91    86    91      1
    92    91    92      1
    93    91    93      1
    94    91    94      1
    95    92    95      1
    96    92    96      1
    97    92    97      1
    98    97    98      1
    99    97    99      1
   100    97   100      1
   101    98   101      1
   102    98   102      1
   103    98   103      1
   104   103   104      1
   105   103   105      1
   106   103   106      1
   107   104   107      1
   108   104   108      1
   109   104   109      1
   110   109   110      1
   111   109   111      1
   112   109   112      1
   113   110   113      1
   114   110   114      1
   115   110   115      1
   116   115   116      1
   117   115   117      1
   118   115   118      1
   119   116   119      1
   120   116   120      1
   121   116   121      1
   122   121   122      1
   123   121   123      1
   124   121   124      1
   125   122   125      1
   126   122   126      1
   127   122   127      1
   128   127   128      1
   129   127   129      1
   130   127   130      1
   131   128   131      1
   132   128   132      1
   133   128   133      1
   134   133   134      1
   135   133   135      1
   136   133   136      1
   137   134   137      1
   138   134   138      1
   139   134   139      1
   140   139   140      1
   141   139   141      1
   142   139   142      1
   143   140   143      1
   144   140   144      1
   145   140   145      1
   146   145   146      1
   147   145   147      1
   148   145   148      1
   149   146   149      1
   150   146   150      1
   151   146   151      1
   152   151   152      1
   153   151   153      1
   154   151   154      1
   155   152   155      1
   156   152   156      1
   157   152   157      1
   158   157   158      1
   159   157   159      1
   160   157   160      1
   161   158   161      1
   162   158   162      1
   163   158   163      1
   164   163   164      1
   165   163   165      1
   166   163   166      1
   167   164   167      1
   168   164   168      1
   169   164   169      H
