###
### Created by PolyChef-cpp17 on Thu Feb 27 19:40:30 2025
###

@<TRIPOS>MOLECULE
NO_INFO
392 391 1 0 0
SMALL
USER_CHARGES


@<TRIPOS>ATOM
      1 C          29.2798   18.5487  -39.3449 C.3       0        0    0.0000
      2 C          27.8706   18.3882  -38.7641 C.3       0        0    0.0000
      3 H          29.9271   17.7366  -38.9913 H         0        0    0.0000
      4 H          29.7280   19.4855  -38.9913 H         0        0    0.0000
      5 H          27.3722   19.3641  -38.7111 H         0        0    0.0000
      6 H          27.2611   17.7586  -39.4242 H         0        0    0.0000
      7 C          27.8873   17.7509  -37.3319 C.3       1        0    0.0000
      8 C          29.1651   18.0942  -36.5583 C.3       1        0    0.0000
      9 H          27.0071   18.1013  -36.7787 H         1        0    0.0000
     10 H          27.7865   16.6627  -37.4279 H         1        0    0.0000
     11 H          30.0454   17.9181  -37.1890 H         1        0    0.0000
     12 H          29.1723   19.1598  -36.2977 H         1        0    0.0000
     13 C          29.3084   17.2516  -35.2442 C.3       2        0    0.0000
     14 C          30.2049   17.9390  -34.2084 C.3       2        0    0.0000
     15 H          28.3099   17.0806  -34.8231 H         2        0    0.0000
     16 H          29.7159   16.2655  -35.4990 H         2        0    0.0000
     17 H          31.2597   17.8191  -34.4851 H         2        0    0.0000
     18 H          30.0037   19.0173  -34.1933 H         2        0    0.0000
     19 C          29.9929   17.3652  -32.7650 C.3       3        0    0.0000
     20 C          30.6171   18.2585  -31.6873 C.3       3        0    0.0000
     21 H          28.9167   17.2530  -32.5836 H         3        0    0.0000
     22 H          30.4269   16.3588  -32.7173 H         3        0    0.0000
     23 H          31.7065   18.2936  -31.8125 H         3        0    0.0000
     24 H          30.2542   19.2881  -31.7956 H         3        0    0.0000
     25 C          30.2909   17.7575  -30.2382 C.3       4        0    0.0000
     26 C          30.8991   18.6616  -29.1604 C.3       4        0    0.0000
     27 H          29.2016   17.7089  -30.1177 H         4        0    0.0000
     28 H          30.6663   16.7328  -30.1254 H         4        0    0.0000
     29 H          31.9888   18.7072  -29.2786 H         4        0    0.0000
     30 H          30.5265   19.6870  -29.2754 H         4        0    0.0000
     31 C          30.5685   18.1635  -27.7112 C.3       5        0    0.0000
     32 C          31.1628   19.0769  -26.6334 C.3       5        0    0.0000
     33 H          29.4789   18.1064  -27.5969 H         5        0    0.0000
     34 H          30.9517   17.1425  -27.5922 H         5        0    0.0000
     35 H          32.2528   19.1311  -26.7455 H         5        0    0.0000
     36 H          30.7824   20.0987  -26.7546 H         5        0    0.0000
     37 C          30.8279   18.5816  -25.1842 C.3       6        0    0.0000
     38 C          31.4783   19.4562  -24.1067 C.3       6        0    0.0000
     39 H          29.7384   18.5745  -25.0559 H         6        0    0.0000
     40 H          31.1643   17.5427  -25.0790 H         6        0    0.0000
     41 H          32.5670   19.4712  -24.2409 H         6        0    0.0000
     42 H          31.1344   20.4933  -24.2058 H         6        0    0.0000
     43 C          31.1547   18.9529  -22.6578 C.3       7        0    0.0000
     44 C          31.0516   20.1049  -21.6521 C.3       7        0    0.0000
     45 H          30.2141   18.3887  -22.6812 H         7        0    0.0000
     46 H          31.9363   18.2494  -22.3451 H         7        0    0.0000
     47 H          32.0295   20.5873  -21.5313 H         7        0    0.0000
     48 H          30.3657   20.8734  -22.0295 H         7        0    0.0000
     49 C          30.5484   19.6241  -20.2475 C.3       8        0    0.0000
     50 C          31.4923   20.0467  -19.1164 C.3       8        0    0.0000
     51 H          29.5452   20.0323  -20.0725 H         8        0    0.0000
     52 H          30.4457   18.5320  -20.2635 H         8        0    0.0000
     53 H          32.5340   19.9958  -19.4569 H         8        0    0.0000
     54 H          31.3025   21.0909  -18.8384 H         8        0    0.0000
     55 C          31.3328   19.1476  -17.8422 C.3       9        0    0.0000
     56 C          31.0856   19.9740  -16.5754 C.3       9        0    0.0000
     57 H          30.5022   18.4494  -18.0039 H         9        0    0.0000
     58 H          32.2376   18.5387  -17.7235 H         9        0    0.0000
     59 H          32.0145   20.4643  -16.2588 H         9        0    0.0000
     60 H          30.3625   20.7727  -16.7824 H         9        0    0.0000
     61 C          30.5470   19.0994  -15.3911 C.3      10        0    0.0000
     62 C          30.9814   19.6408  -14.0247 C.3      10        0    0.0000
     63 H          29.4521   19.0606  -15.4496 H        10        0    0.0000
     64 H          30.9059   18.0707  -15.5196 H        10        0    0.0000
     65 H          32.0653   19.8099  -14.0144 H        10        0    0.0000
     66 H          30.5091   20.6133  -13.8380 H        10        0    0.0000
     67 C          30.6108   18.6661  -12.8543 C.3      11        0    0.0000
     68 C          30.8669   19.2882  -11.4771 C.3      11        0    0.0000
     69 H          29.5548   18.3846  -12.9494 H        11        0    0.0000
     70 H          31.1939   17.7434  -12.9645 H        11        0    0.0000
     71 H          31.9304   19.5337  -11.3672 H        11        0    0.0000
     72 H          30.3144   20.2312  -11.3817 H        11        0    0.0000
     73 C          30.4448   18.3346  -10.3067 C.3      12        0    0.0000
     74 C          30.7132   18.9513   -8.9295 C.3      12        0    0.0000
     75 H          29.3789   18.0969  -10.4111 H        12        0    0.0000
     76 H          30.9900   17.3880  -10.4077 H        12        0    0.0000
     77 H          31.7786   19.1922   -8.8264 H        12        0    0.0000
     78 H          30.1653   19.8962   -8.8272 H        12        0    0.0000
     79 C          30.2957   17.9958   -7.7590 C.3      13        0    0.0000
     80 C          30.5642   18.6125   -6.3818 C.3      13        0    0.0000
     81 H          29.2303   17.7550   -7.8621 H        13        0    0.0000
     82 H          30.8435   17.0509   -7.8614 H        13        0    0.0000
     83 H          31.6294   18.8538   -6.2790 H        13        0    0.0000
     84 H          30.0159   19.5571   -6.2793 H        13        0    0.0000
     85 C          30.1473   17.6566   -5.2114 C.3      14        0    0.0000
     86 C          30.4165   18.2730   -3.8342 C.3      14        0    0.0000
     87 H          29.0820   17.4157   -5.3139 H        14        0    0.0000
     88 H          30.6953   16.7118   -5.3142 H        14        0    0.0000
     89 H          31.4863   18.4881   -3.7209 H        14        0    0.0000
     90 H          29.8909   19.2316   -3.7418 H        14        0    0.0000
     91 C          29.9634   17.3335   -2.6639 C.3      15        0    0.0000
     92 C          30.1883   17.9699   -1.2879 C.3      15        0    0.0000
     93 H          28.9020   17.0899   -2.7968 H        15        0    0.0000
     94 H          30.5150   16.3880   -2.7358 H        15        0    0.0000
     95 H          31.2239   18.3211   -1.2006 H        15        0    0.0000
     96 H          29.5458   18.8515   -1.1716 H        15        0    0.0000
     97 C          29.8929   16.9713   -0.1161 C.3      16        0    0.0000
     98 C          28.9467   17.5684    0.9313 C.3      16        0    0.0000
     99 H          29.4606   16.0537   -0.5340 H        16        0    0.0000
    100 H          30.8426   16.6866    0.3537 H        16        0    0.0000
    101 H          27.9295   17.6339    0.5255 H        16        0    0.0000
    102 H          28.8942   16.9118    1.8086 H        16        0    0.0000
    103 C          29.3986   18.9961    1.3950 C.3      17        0    0.0000
    104 C          28.3350   19.6925    2.2510 C.3      17        0    0.0000
    105 H          30.3350   18.9047    1.9593 H        17        0    0.0000
    106 H          29.6231   19.6014    0.5081 H        17        0    0.0000
    107 H          27.3534   19.2342    2.0778 H        17        0    0.0000
    108 H          28.5619   19.5580    3.3159 H        17        0    0.0000
    109 C          28.2374   21.2269    1.9451 C.3      18        0    0.0000
    110 C          28.5990   22.0860    3.1617 C.3      18        0    0.0000
    111 H          28.9037   21.4633    1.1062 H        18        0    0.0000
    112 H          27.2177   21.4569    1.6120 H        18        0    0.0000
    113 H          27.7210   22.2126    3.8072 H        18        0    0.0000
    114 H          29.3634   21.5807    3.7651 H        18        0    0.0000
    115 C          29.1332   23.5016    2.7518 C.3      19        0    0.0000
    116 C          28.1964   24.6284    3.2010 C.3      19        0    0.0000
    117 H          30.1293   23.6439    3.1889 H        19        0    0.0000
    118 H          29.2602   23.5298    1.6625 H        19        0    0.0000
    119 H          27.1535   24.2907    3.1565 H        19        0    0.0000
    120 H          28.3981   24.8909    4.2469 H        19        0    0.0000
    121 C          28.3489   25.9151    2.3186 C.3      20        0    0.0000
    122 C          28.9205   27.0971    3.1092 C.3      20        0    0.0000
    123 H          28.9987   25.6838    1.4655 H        20        0    0.0000
    124 H          27.3676   26.1786    1.9050 H        20        0    0.0000
    125 H          28.1050   27.7213    3.4950 H        20        0    0.0000
    126 H          29.4775   26.7323    3.9812 H        20        0    0.0000
    127 C          29.8716   27.9894    2.2393 C.3      21        0    0.0000
    128 C          30.9572   28.6716    3.0791 C.3      21        0    0.0000
    129 H          30.3326   27.3641    1.4647 H        21        0    0.0000
    130 H          29.2696   28.7440    1.7180 H        21        0    0.0000
    131 H          30.5946   29.6387    3.4487 H        21        0    0.0000
    132 H          31.1874   28.0630    3.9623 H        21        0    0.0000
    133 C          32.2780   28.9038    2.2673 C.3      22        0    0.0000
    134 C          33.4973   29.0782    3.1794 C.3      22        0    0.0000
    135 H          32.4321   28.0532    1.5918 H        22        0    0.0000
    136 H          32.1523   29.7905    1.6336 H        22        0    0.0000
    137 H          33.6314   30.1379    3.4295 H        22        0    0.0000
    138 H          33.3372   28.5486    4.1267 H        22        0    0.0000
    139 C          34.8148   28.5444    2.5185 C.3      23        0    0.0000
    140 C          36.0172   28.6351    3.4645 C.3      23        0    0.0000
    141 H          34.6581   27.5039    2.2079 H        23        0    0.0000
    142 H          35.0105   29.1197    1.6051 H        23        0    0.0000
    143 H          36.2610   29.6861    3.6633 H        23        0    0.0000
    144 H          35.7699   28.1806    4.4319 H        23        0    0.0000
    145 C          37.2867   27.9235    2.8817 C.3      24        0    0.0000
    146 C          38.4946   28.0312    3.8189 C.3      24        0    0.0000
    147 H          37.0472   26.8691    2.6964 H        24        0    0.0000
    148 H          37.5255   28.3682    1.9077 H        24        0    0.0000
    149 H          38.5852   29.0561    4.1995 H        24        0    0.0000
    150 H          38.3523   27.3824    4.6920 H        24        0    0.0000
    151 C          39.8349   27.6356    3.1085 C.3      25        0    0.0000
    152 C          41.0480   27.7830    4.0335 C.3      25        0    0.0000
    153 H          39.7553   26.6003    2.7546 H        25        0    0.0000
    154 H          39.9621   28.2640    2.2183 H        25        0    0.0000
    155 H          40.8588   28.5637    4.7806 H        25        0    0.0000
    156 H          41.2142   26.8507    4.5874 H        25        0    0.0000
    157 C          42.3550   28.1429    3.2464 C.3      26        0    0.0000
    158 C          43.5620   28.3192    4.1743 C.3      26        0    0.0000
    159 H          42.5561   27.3512    2.5140 H        26        0    0.0000
    160 H          42.1818   29.0636    2.6755 H        26        0    0.0000
    161 H          43.2933   28.9599    5.0234 H        26        0    0.0000
    162 H          43.8594   27.3498    4.5930 H        26        0    0.0000
    163 C          44.7926   28.9493    3.4353 C.3      27        0    0.0000
    164 C          45.9944   29.1400    4.3671 C.3      27        0    0.0000
    165 H          45.0684   28.3027    2.5931 H        27        0    0.0000
    166 H          44.4920   29.9135    3.0070 H        27        0    0.0000
    167 H          45.7166   29.7807    5.2131 H        27        0    0.0000
    168 H          46.2996   28.1747    4.7898 H        27        0    0.0000
    169 C          47.2216   29.7796    3.6305 C.3      28        0    0.0000
    170 C          48.4242   29.9684    4.5618 C.3      28        0    0.0000
    171 H          47.4985   29.1397    2.7836 H        28        0    0.0000
    172 H          46.9169   30.7456    3.2091 H        28        0    0.0000
    173 H          49.3070   30.2630    3.9810 H        28        0    0.0000
    174 H          48.2271   30.7824    5.2703 H        28        0    0.0000
    175 C          48.7611   28.6670    5.3683 C.3      29        0    0.0000
    176 C          49.9841   28.8456    6.2746 C.3      29        0    0.0000
    177 H          47.8863   28.3862    5.9679 H        29        0    0.0000
    178 H          48.9341   27.8471    4.6603 H        29        0    0.0000
    179 H          49.7200   28.6115    7.3133 H        29        0    0.0000
    180 H          50.7737   28.1416    5.9839 H        29        0    0.0000
    181 C          50.5595   30.3027    6.2157 C.3      30        0    0.0000
    182 C          51.8602   30.4462    7.0135 C.3      30        0    0.0000
    183 H          50.7300   30.5734    5.1663 H        30        0    0.0000
    184 H          49.8031   30.9974    6.6013 H        30        0    0.0000
    185 H          52.7027   30.6167    6.3318 H        30        0    0.0000
    186 H          51.8039   31.3232    7.6702 H        30        0    0.0000
    187 C          52.1646   29.1801    7.8863 C.3      31        0    0.0000
    188 C          53.4298   29.3499    8.7346 C.3      31        0    0.0000
    189 H          51.3016   28.9810    8.5336 H        31        0    0.0000
    190 H          52.2691   28.3113    7.2246 H        31        0    0.0000
    191 H          54.3116   29.4180    8.0854 H        31        0    0.0000
    192 H          53.3809   30.2892    9.2991 H        31        0    0.0000
    193 C          53.6336   28.1655    9.7411 C.3      32        0    0.0000
    194 C          54.8974   28.3365   10.5911 C.3      32        0    0.0000
    195 H          52.7510   28.0962   10.3890 H        32        0    0.0000
    196 H          53.6843   27.2263    9.1764 H        32        0    0.0000
    197 H          55.7746   27.9803   10.0369 H        32        0    0.0000
    198 H          55.0681   29.3995   10.8017 H        32        0    0.0000
    199 C          54.8089   27.5601   11.9501 C.3      33        0    0.0000
    200 C          56.0383   27.7953   12.8346 C.3      33        0    0.0000
    201 H          53.9000   27.8739   12.4782 H        33        0    0.0000
    202 H          54.6967   26.4894   11.7390 H        33        0    0.0000
    203 H          55.8896   27.3300   13.8169 H        33        0    0.0000
    204 H          56.9192   27.3165   12.3893 H        33        0    0.0000
    205 C          56.3406   29.3200   13.0383 C.3      34        0    0.0000
    206 C          57.6128   29.5551   13.8601 C.3      34        0    0.0000
    207 H          56.4350   29.7963   12.0545 H        34        0    0.0000
    208 H          55.4809   29.7878   13.5337 H        34        0    0.0000
    209 H          58.2474   28.6606   13.8352 H        34        0    0.0000
    210 H          58.1999   30.3703   13.4195 H        34        0    0.0000
    211 C          57.2977   29.9097   15.3543 C.3      35        0    0.0000
    212 C          58.5702   30.1230   16.1814 C.3      35        0    0.0000
    213 H          56.6765   30.8136   15.3798 H        35        0    0.0000
    214 H          56.6967   29.1020   15.7902 H        35        0    0.0000
    215 H          59.0823   31.0367   15.8550 H        35        0    0.0000
    216 H          58.3124   30.2666   17.2380 H        35        0    0.0000
    217 C          59.5647   28.9169   16.0634 C.3      36        0    0.0000
    218 C          60.6366   28.9386   17.1586 C.3      36        0    0.0000
    219 H          58.9937   27.9815   16.1144 H        36        0    0.0000
    220 H          60.0374   28.9438   15.0738 H        36        0    0.0000
    221 H          61.6153   28.6856   16.7321 H        36        0    0.0000
    222 H          60.7268   29.9488   17.5767 H        36        0    0.0000
    223 C          60.3181   27.9369   18.3216 C.3      37        0    0.0000
    224 C          61.4568   27.8529   19.3441 C.3      37        0    0.0000
    225 H          59.3911   28.2525   18.8161 H        37        0    0.0000
    226 H          60.1245   26.9462   17.8920 H        37        0    0.0000
    227 H          62.2131   27.1334   19.0065 H        37        0    0.0000
    228 H          61.9605   28.8240   19.4268 H        37        0    0.0000
    229 C          60.9498   27.4242   20.7641 C.3      38        0    0.0000
    230 C          61.6573   28.1882   21.8887 C.3      38        0    0.0000
    231 H          59.8670   27.5921   20.8186 H        38        0    0.0000
    232 H          61.1077   26.3453   20.8851 H        38        0    0.0000
    233 H          62.5651   27.6531   22.1937 H        38        0    0.0000
    234 H          61.9783   29.1739   21.5296 H        38        0    0.0000
    235 C          60.7390   28.3822   23.1443 C.3      39        0    0.0000
    236 C          60.9665   29.7356   23.8267 C.3      39        0    0.0000
    237 H          59.6910   28.2889   22.8337 H        39        0    0.0000
    238 H          60.9315   27.5668   23.8525 H        39        0    0.0000
    239 H          61.9378   29.7413   24.3365 H        39        0    0.0000
    240 H          61.0002   30.5346   23.0757 H        39        0    0.0000
    241 C          59.8459   30.0703   24.8706 C.3      40        0    0.0000
    242 C          60.4104   30.2890   26.2787 C.3      40        0    0.0000
    243 H          59.3086   30.9669   24.5374 H        40        0    0.0000
    244 H          59.1161   29.2513   24.8809 H        40        0    0.0000
    245 H          61.4019   29.8270   26.3624 H        40        0    0.0000
    246 H          60.5454   31.3612   26.4675 H        40        0    0.0000
    247 C          59.4799   29.6933   27.3908 C.3      41        0    0.0000
    248 C          58.5300   30.7434   27.9772 C.3      41        0    0.0000
    249 H          58.9047   28.8628   26.9632 H        41        0    0.0000
    250 H          60.1058   29.2672   28.1847 H        41        0    0.0000
    251 H          58.9465   31.1499   28.9072 H        41        0    0.0000
    252 H          58.4269   31.5868   27.2832 H        41        0    0.0000
    253 C          57.1069   30.1571   28.2749 C.3      42        0    0.0000
    254 C          55.9862   31.1303   27.8929 C.3      42        0    0.0000
    255 H          56.9906   29.2149   27.7250 H        42        0    0.0000
    256 H          57.0426   29.9093   29.3416 H        42        0    0.0000
    257 H          55.9702   31.9777   28.5895 H        42        0    0.0000
    258 H          56.1730   31.5462   26.8951 H        42        0    0.0000
    259 C          54.5764   30.4447   27.8988 C.3      43        0    0.0000
    260 C          53.5982   31.1362   28.8548 C.3      43        0    0.0000
    261 H          54.1746   30.4538   26.8780 H        43        0    0.0000
    262 H          54.6966   29.3913   28.1806 H        43        0    0.0000
    263 H          54.1508   31.7248   29.5976 H        43        0    0.0000
    264 H          52.9660   31.8413   28.3011 H        43        0    0.0000
    265 C          52.6771   30.1131   29.6047 C.3      44        0    0.0000
    266 C          52.0141   30.7272   30.8425 C.3      44        0    0.0000
    267 H          51.9107   29.7509   28.9082 H        44        0    0.0000
    268 H          53.2779   29.2417   29.8930 H        44        0    0.0000
    269 H          52.7755   30.9791   31.5911 H        44        0    0.0000
    270 H          51.5134   31.6658   30.5744 H        44        0    0.0000
    271 C          50.9642   29.7627   31.4944 C.3      45        0    0.0000
    272 C          50.2084   30.4239   32.6522 C.3      45        0    0.0000
    273 H          50.2574   29.4354   30.7219 H        45        0    0.0000
    274 H          51.4826   28.8631   31.8486 H        45        0    0.0000
    275 H          50.8962   30.6298   33.4816 H        45        0    0.0000
    276 H          49.8020   31.3915   32.3323 H        45        0    0.0000
    277 C          49.0325   29.5318   33.1804 C.3      46        0    0.0000
    278 C          47.9547   30.3547   33.8948 C.3      46        0    0.0000
    279 H          48.5926   28.9894   32.3344 H        46        0    0.0000
    280 H          49.4412   28.7752   33.8616 H        46        0    0.0000
    281 H          48.3611   30.7863   34.8179 H        46        0    0.0000
    282 H          47.6442   31.1966   33.2635 H        46        0    0.0000
    283 C          46.6916   29.4975   34.2511 C.3      47        0    0.0000
    284 C          45.9074   30.0815   35.4314 C.3      47        0    0.0000
    285 H          46.0466   29.4332   33.3660 H        47        0    0.0000
    286 H          47.0124   28.4741   34.4821 H        47        0    0.0000
    287 H          46.5322   30.0853   36.3331 H        47        0    0.0000
    288 H          45.6428   31.1263   35.2271 H        47        0    0.0000
    289 C          44.5953   29.2769   35.7292 C.3      48        0    0.0000
    290 C          43.4868   30.1656   36.3039 C.3      48        0    0.0000
    291 H          44.2535   28.8018   34.8013 H        48        0    0.0000
    292 H          44.8291   28.4663   36.4306 H        48        0    0.0000
    293 H          43.7523   30.4900   37.3177 H        48        0    0.0000
    294 H          43.3824   31.0751   35.6993 H        48        0    0.0000
    295 C          42.1028   29.4311   36.3547 C.3      49        0    0.0000
    296 C          40.9518   30.3275   35.8851 C.3      49        0    0.0000
    297 H          42.1573   28.5307   35.7303 H        49        0    0.0000
    298 H          41.9202   29.0916   37.3818 H        49        0    0.0000
    299 H          40.6446   31.0005   36.6951 H        49        0    0.0000
    300 H          41.2850   30.9641   35.0560 H        49        0    0.0000
    301 C          39.7063   29.4988   35.4168 C.3      50        0    0.0000
    302 C          39.0573   30.0862   34.1587 C.3      50        0    0.0000
    303 H          40.0198   28.4641   35.2304 H        50        0    0.0000
    304 H          38.9766   29.4642   36.2353 H        50        0    0.0000
    305 H          38.2332   30.7544   34.4376 H        50        0    0.0000
    306 H          39.7854   30.6960   33.6097 H        50        0    0.0000
    307 C          38.5048   28.9748   33.2011 C.3      51        0    0.0000
    308 C          36.9963   28.7614   33.3683 C.3      51        0    0.0000
    309 H          38.7325   29.2553   32.1653 H        51        0    0.0000
    310 H          39.0413   28.0386   33.3992 H        51        0    0.0000
    311 H          36.6675   29.1465   34.3416 H        51        0    0.0000
    312 H          36.4493   29.3278   32.6044 H        51        0    0.0000
    313 C          36.5946   27.2499   33.2611 C.3      52        0    0.0000
    314 C          35.5279   27.0072   32.1876 C.3      52        0    0.0000
    315 H          37.4926   26.6603   33.0391 H        52        0    0.0000
    316 H          36.2288   26.9111   34.2383 H        52        0    0.0000
    317 H          34.5425   27.3130   32.5606 H        52        0    0.0000
    318 H          35.7358   27.6239   31.3045 H        52        0    0.0000
    319 C          35.4578   25.5038   31.7490 C.3      53        0    0.0000
    320 C          34.3078   25.2369   30.7715 C.3      53        0    0.0000
    321 H          36.4142   25.2245   31.2899 H        53        0    0.0000
    322 H          35.3436   24.8794   32.6437 H        53        0    0.0000
    323 H          33.3756   25.6637   31.1619 H        53        0    0.0000
    324 H          34.5052   25.7342   29.8138 H        53        0    0.0000
    325 C          34.0926   23.7061   30.5112 C.3      54        0    0.0000
    326 C          32.8638   23.4328   29.6370 C.3      54        0    0.0000
    327 H          34.9922   23.2988   30.0335 H        54        0    0.0000
    328 H          33.9891   23.1945   31.4761 H        54        0    0.0000
    329 H          33.0330   23.8113   28.6213 H        54        0    0.0000
    330 H          32.6991   22.3519   29.5470 H        54        0    0.0000
    331 C          31.5653   24.0955   30.2134 C.3      55        0    0.0000
    332 C          30.3997   24.0503   29.2192 C.3      55        0    0.0000
    333 H          31.2880   23.5811   31.1418 H        55        0    0.0000
    334 H          31.7889   25.1349   30.4838 H        55        0    0.0000
    335 H          30.7787   24.1167   28.1919 H        55        0    0.0000
    336 H          29.8737   23.0910   29.2996 H        55        0    0.0000
    337 C          29.3726   25.2110   29.4548 C.3      56        0    0.0000
    338 C          28.1654   25.1180   28.5151 C.3      56        0    0.0000
    339 H          29.0392   25.1815   30.4996 H        56        0    0.0000
    340 H          29.8853   26.1707   29.3147 H        56        0    0.0000
    341 H          27.4814   24.3317   28.8580 H        56        0    0.0000
    342 H          27.6000   26.0579   28.5348 H        56        0    0.0000
    343 C          28.5858   24.8122   27.0362 C.3      57        0    0.0000
    344 C          27.3903   24.4175   26.1622 C.3      57        0    0.0000
    345 H          29.0807   25.6979   26.6189 H        57        0    0.0000
    346 H          29.3312   24.0072   27.0397 H        57        0    0.0000
    347 H          26.5593   24.0777   26.7927 H        57        0    0.0000
    348 H          27.0270   25.2901   25.6054 H        57        0    0.0000
    349 C          27.7487   23.2814   25.1432 C.3      58        0    0.0000
    350 C          26.5892   22.9680   24.1912 C.3      58        0    0.0000
    351 H          28.6336   23.5860   24.5708 H        58        0    0.0000
    352 H          28.0300   22.3805   25.7026 H        58        0    0.0000
    353 H          26.0232   22.1034   24.5594 H        58        0    0.0000
    354 H          25.8895   23.8124   24.1599 H        58        0    0.0000
    355 C          27.0820   22.6660   22.7340 C.3      59        0    0.0000
    356 C          25.9264   22.3107   21.7919 C.3      59        0    0.0000
    357 H          27.6210   23.5427   22.3541 H        59        0    0.0000
    358 H          27.8055   21.8421   22.7691 H        59        0    0.0000
    359 H          25.0969   21.8742   22.3620 H        59        0    0.0000
    360 H          25.5373   23.2188   21.3149 H        59        0    0.0000
    361 C          26.3596   21.2993   20.6753 C.3      60        0    0.0000
    362 C          25.2265   21.0062   19.6857 C.3      60        0    0.0000
    363 H          27.2268   21.7099   20.1434 H        60        0    0.0000
    364 H          26.6934   20.3689   21.1512 H        60        0    0.0000
    365 H          24.6102   20.1769   20.0544 H        60        0    0.0000
    366 H          24.5651   21.8775   19.6024 H        60        0    0.0000
    367 C          25.7635   20.6412   18.2589 C.3      61        0    0.0000
    368 C          24.6315   20.3182   17.2774 C.3      61        0    0.0000
    369 H          26.3613   21.4798   17.8808 H        61        0    0.0000
    370 H          26.4426   19.7839   18.3453 H        61        0    0.0000
    371 H          24.0810   21.2326   17.0240 H        61        0    0.0000
    372 H          25.0467   19.9302   16.3389 H        61        0    0.0000
    373 C          23.6243   19.2663   17.8574 C.3      62        0    0.0000
    374 C          22.4147   19.0534   16.9407 C.3      62        0    0.0000
    375 H          24.1529   18.3170   18.0093 H        62        0    0.0000
    376 H          23.2917   19.6035   18.8470 H        62        0    0.0000
    377 H          22.2402   17.9807   16.7911 H        62        0    0.0000
    378 H          21.5099   19.4570   17.4120 H        62        0    0.0000
    379 C          22.6024   19.7348   15.5414 C.3      63        0    0.0000
    380 C          21.3314   19.6680   14.6876 C.3      63        0    0.0000
    381 H          22.8986   20.7800   15.6940 H        63        0    0.0000
    382 H          23.4332   19.2451   15.0183 H        63        0    0.0000
    383 H          21.4813   20.2117   13.7466 H        63        0    0.0000
    384 H          21.1132   18.6270   14.4186 H        63        0    0.0000
    385 C          20.0870   20.2704   15.4265 C.3      64        0    0.0000
    386 C          19.3908   21.3574   14.6002 C.3      64        0    0.0000
    387 H          19.3827   19.4599   15.6514 H        64        0    0.0000
    388 H          20.4126   20.6811   16.3902 H        64        0    0.0000
    389 H          20.0952   22.1679   14.3754 H        64        0    0.0000
    390 H          19.0652   20.9467   13.6365 H        64        0    0.0000
    391 H          18.5256   21.7763   15.1140 H        64        0    0.0000
    392 H          29.2798   18.5487  -40.4349 H         0        0    0.0000
@<TRIPOS>BOND
     1     1     2      1
     2     1     3      1
     3     1     4      1
     4     1   392      H
     5     2     5      1
     6     2     6      1
     7     2     7      1
     8     7     8      1
     9     7     9      1
    10     7    10      1
    11     8    11      1
    12     8    12      1
    13     8    13      1
    14    13    14      1
    15    13    15      1
    16    13    16      1
    17    14    17      1
    18    14    18      1
    19    14    19      1
    20    19    20      1
    21    19    21      1
    22    19    22      1
    23    20    23      1
    24    20    24      1
    25    20    25      1
    26    25    26      1
    27    25    27      1
    28    25    28      1
    29    26    29      1
    30    26    30      1
    31    26    31      1
    32    31    32      1
    33    31    33      1
    34    31    34      1
    35    32    35      1
    36    32    36      1
    37    32    37      1
    38    37    38      1
    39    37    39      1
    40    37    40      1
    41    38    41      1
    42    38    42      1
    43    38    43      1
    44    43    44      1
    45    43    45      1
    46    43    46      1
    47    44    47      1
    48    44    48      1
    49    44    49      1
    50    49    50      1
    51    49    51      1
    52    49    52      1
    53    50    53      1
    54    50    54      1
    55    50    55      1
    56    55    56      1
    57    55    57      1
    58    55    58      1
    59    56    59      1
    60    56    60      1
    61    56    61      1
    62    61    62      1
    63    61    63      1
    64    61    64      1
    65    62    65      1
    66    62    66      1
    67    62    67      1
    68    67    68      1
    69    67    69      1
    70    67    70      1
    71    68    71      1
    72    68    72      1
    73    68    73      1
    74    73    74      1
    75    73    75      1
    76    73    76      1
    77    74    77      1
    78    74    78      1
    79    74    79      1
    80    79    80      1
    81    79    81      1
    82    79    82      1
    83    80    83      1
    84    80    84      1
    85    80    85      1
    86    85    86      1
    87    85    87      1
    88    85    88      1
    89    86    89      1
    90    86    90      1
    91    86    91      1
    92    91    92      1
    93    91    93      1
    94    91    94      1
    95    92    95      1
    96    92    96      1
    97    92    97      1
    98    97    98      1
    99    97    99      1
   100    97   100      1
   101    98   101      1
   102    98   102      1
   103    98   103      1
   104   103   104      1
   105   103   105      1
   106   103   106      1
   107   104   107      1
   108   104   108      1
   109   104   109      1
   110   109   110      1
   111   109   111      1
   112   109   112      1
   113   110   113      1
   114   110   114      1
   115   110   115      1
   116   115   116      1
   117   115   117      1
   118   115   118      1
   119   116   119      1
   120   116   120      1
   121   116   121      1
   122   121   122      1
   123   121   123      1
   124   121   124      1
   125   122   125      1
   126   122   126      1
   127   122   127      1
   128   127   128      1
   129   127   129      1
   130   127   130      1
   131   128   131      1
   132   128   132      1
   133   128   133      1
   134   133   134      1
   135   133   135      1
   136   133   136      1
   137   134   137      1
   138   134   138      1
   139   134   139      1
   140   139   140      1
   141   139   141      1
   142   139   142      1
   143   140   143      1
   144   140   144      1
   145   140   145      1
   146   145   146      1
   147   145   147      1
   148   145   148      1
   149   146   149      1
   150   146   150      1
   151   146   151      1
   152   151   152      1
   153   151   153      1
   154   151   154      1
   155   152   155      1
   156   152   156      1
   157   152   157      1
   158   157   158      1
   159   157   159      1
   160   157   160      1
   161   158   161      1
   162   158   162      1
   163   158   163      1
   164   163   164      1
   165   163   165      1
   166   163   166      1
   167   164   167      1
   168   164   168      1
   169   164   169      1
   170   169   170      1
   171   169   171      1
   172   169   172      1
   173   170   173      1
   174   170   174      1
   175   170   175      1
   176   175   176      1
   177   175   177      1
   178   175   178      1
   179   176   179      1
   180   176   180      1
   181   176   181      1
   182   181   182      1
   183   181   183      1
   184   181   184      1
   185   182   185      1
   186   182   186      1
   187   182   187      1
   188   187   188      1
   189   187   189      1
   190   187   190      1
   191   188   191      1
   192   188   192      1
   193   188   193      1
   194   193   194      1
   195   193   195      1
   196   193   196      1
   197   194   197      1
   198   194   198      1
   199   194   199      1
   200   199   200      1
   201   199   201      1
   202   199   202      1
   203   200   203      1
   204   200   204      1
   205   200   205      1
   206   205   206      1
   207   205   207      1
   208   205   208      1
   209   206   209      1
   210   206   210      1
   211   206   211      1
   212   211   212      1
   213   211   213      1
   214   211   214      1
   215   212   215      1
   216   212   216      1
   217   212   217      1
   218   217   218      1
   219   217   219      1
   220   217   220      1
   221   218   221      1
   222   218   222      1
   223   218   223      1
   224   223   224      1
   225   223   225      1
   226   223   226      1
   227   224   227      1
   228   224   228      1
   229   224   229      1
   230   229   230      1
   231   229   231      1
   232   229   232      1
   233   230   233      1
   234   230   234      1
   235   230   235      1
   236   235   236      1
   237   235   237      1
   238   235   238      1
   239   236   239      1
   240   236   240      1
   241   236   241      1
   242   241   242      1
   243   241   243      1
   244   241   244      1
   245   242   245      1
   246   242   246      1
   247   242   247      1
   248   247   248      1
   249   247   249      1
   250   247   250      1
   251   248   251      1
   252   248   252      1
   253   248   253      1
   254   253   254      1
   255   253   255      1
   256   253   256      1
   257   254   257      1
   258   254   258      1
   259   254   259      1
   260   259   260      1
   261   259   261      1
   262   259   262      1
   263   260   263      1
   264   260   264      1
   265   260   265      1
   266   265   266      1
   267   265   267      1
   268   265   268      1
   269   266   269      1
   270   266   270      1
   271   266   271      1
   272   271   272      1
   273   271   273      1
   274   271   274      1
   275   272   275      1
   276   272   276      1
   277   272   277      1
   278   277   278      1
   279   277   279      1
   280   277   280      1
   281   278   281      1
   282   278   282      1
   283   278   283      1
   284   283   284      1
   285   283   285      1
   286   283   286      1
   287   284   287      1
   288   284   288      1
   289   284   289      1
   290   289   290      1
   291   289   291      1
   292   289   292      1
   293   290   293      1
   294   290   294      1
   295   290   295      1
   296   295   296      1
   297   295   297      1
   298   295   298      1
   299   296   299      1
   300   296   300      1
   301   296   301      1
   302   301   302      1
   303   301   303      1
   304   301   304      1
   305   302   305      1
   306   302   306      1
   307   302   307      1
   308   307   308      1
   309   307   309      1
   310   307   310      1
   311   308   311      1
   312   308   312      1
   313   308   313      1
   314   313   314      1
   315   313   315      1
   316   313   316      1
   317   314   317      1
   318   314   318      1
   319   314   319      1
   320   319   320      1
   321   319   321      1
   322   319   322      1
   323   320   323      1
   324   320   324      1
   325   320   325      1
   326   325   326      1
   327   325   327      1
   328   325   328      1
   329   326   329      1
   330   326   330      1
   331   326   331      1
   332   331   332      1
   333   331   333      1
   334   331   334      1
   335   332   335      1
   336   332   336      1
   337   332   337      1
   338   337   338      1
   339   337   339      1
   340   337   340      1
   341   338   341      1
   342   338   342      1
   343   338   343      1
   344   343   344      1
   345   343   345      1
   346   343   346      1
   347   344   347      1
   348   344   348      1
   349   344   349      1
   350   349   350      1
   351   349   351      1
   352   349   352      1
   353   350   353      1
   354   350   354      1
   355   350   355      1
   356   355   356      1
   357   355   357      1
   358   355   358      1
   359   356   359      1
   360   356   360      1
   361   356   361      1
   362   361   362      1
   363   361   363      1
   364   361   364      1
   365   362   365      1
   366   362   366      1
   367   362   367      1
   368   367   368      1
   369   367   369      1
   370   367   370      1
   371   368   371      1
   372   368   372      1
   373   368   373      1
   374   373   374      1
   375   373   375      1
   376   373   376      1
   377   374   377      1
   378   374   378      1
   379   374   379      1
   380   379   380      1
   381   379   381      1
   382   379   382      1
   383   380   383      1
   384   380   384      1
   385   380   385      1
   386   385   386      1
   387   385   387      1
   388   385   388      1
   389   386   389      1
   390   386   390      1
   391   386   391      H
