###
### Created by PolyChef-cpp17 on Thu Feb 27 19:40:29 2025
###

@<TRIPOS>MOLECULE
NO_INFO
296 295 1 0 0
SMALL
USER_CHARGES


@<TRIPOS>ATOM
      1 C          49.2798  191.7487  120.6551 C.3       0        0    0.0000
      2 C          48.4513  190.5975  120.0742 C.3       0        0    0.0000
      3 H          48.8875  192.7103  120.3015 H         0        0    0.0000
      4 H          50.3162  191.6821  120.3014 H         0        0    0.0000
      5 H          48.4068  189.7675  120.7902 H         0        0    0.0000
      6 H          47.4177  190.9250  119.9069 H         0        0    0.0000
      7 C          49.0385  190.0667  118.7211 C.3       1        0    0.0000
      8 C          49.6347  191.1903  117.8661 C.3       1        0    0.0000
      9 H          49.8053  189.3131  118.9398 H         1        0    0.0000
     10 H          48.2423  189.5543  118.1669 H         1        0    0.0000
     11 H          48.9423  192.0403  117.8260 H         1        0    0.0000
     12 H          50.5610  191.5598  118.3233 H         1        0    0.0000
     13 C          49.9453  190.7222  116.4026 C.3       2        0    0.0000
     14 C          49.8811  191.8773  115.3973 C.3       2        0    0.0000
     15 H          50.9405  190.2610  116.3826 H         2        0    0.0000
     16 H          49.2297  189.9393  116.1223 H         2        0    0.0000
     17 H          48.9586  192.4527  115.5439 H         2        0    0.0000
     18 H          50.7147  192.5701  115.5665 H         2        0    0.0000
     19 C          49.9337  191.3765  113.9127 C.3       3        0    0.0000
     20 C          49.8222  192.5277  112.9071 C.3       3        0    0.0000
     21 H          50.8723  190.8304  113.7568 H         3        0    0.0000
     22 H          49.1206  190.6575  113.7530 H         3        0    0.0000
     23 H          48.8881  193.0797  113.0692 H         3        0    0.0000
     24 H          50.6408  193.2418  113.0605 H         3        0    0.0000
     25 C          49.8613  192.0256  111.4225 C.3       4        0    0.0000
     26 C          49.8599  193.1830  110.4177 C.3       4        0    0.0000
     27 H          50.7561  191.4066  111.2821 H         4        0    0.0000
     28 H          48.9965  191.3739  111.2468 H         4        0    0.0000
     29 H          48.9576  193.7931  110.5480 H         4        0    0.0000
     30 H          50.7162  193.8432  110.6033 H         4        0    0.0000
     31 C          49.9208  192.6814  108.9338 C.3       5        0    0.0000
     32 C          48.8566  193.3446  108.0524 C.3       5        0    0.0000
     33 H          50.9214  192.8846  108.5326 H         5        0    0.0000
     34 H          49.7924  191.5919  108.9232 H         5        0    0.0000
     35 H          47.8981  193.3830  108.5846 H         5        0    0.0000
     36 H          49.1396  194.3825  107.8376 H         5        0    0.0000
     37 C          48.6514  192.5857  106.6961 C.3       6        0    0.0000
     38 C          48.9800  193.4639  105.4837 C.3       6        0    0.0000
     39 H          49.2834  191.6890  106.6935 H         6        0    0.0000
     40 H          47.6122  192.2388  106.6387 H         6        0    0.0000
     41 H          48.0859  194.0131  105.1636 H         6        0    0.0000
     42 H          49.7309  194.2158  105.7563 H         6        0    0.0000
     43 C          49.5194  192.6271  104.2728 C.3       7        0    0.0000
     44 C          48.9162  193.0805  102.9388 C.3       7        0    0.0000
     45 H          50.6125  192.7156  104.2408 H         7        0    0.0000
     46 H          49.2941  191.5676  104.4468 H         7        0    0.0000
     47 H          47.8281  193.1839  103.0338 H         7        0    0.0000
     48 H          49.3042  194.0701  102.6675 H         7        0    0.0000
     49 C          49.2287  192.0785  101.7744 C.3       8        0    0.0000
     50 C          49.0651  192.7234  100.3937 C.3       8        0    0.0000
     51 H          50.2526  191.7038  101.8956 H         8        0    0.0000
     52 H          48.5630  191.2114  101.8658 H         8        0    0.0000
     53 H          48.0201  193.0185  100.2377 H         8        0    0.0000
     54 H          49.6638  193.6407  100.3336 H         8        0    0.0000
     55 C          49.4970  191.7613   99.2337 C.3       9        0    0.0000
     56 C          49.2340  192.3653   97.8499 C.3       9        0    0.0000
     57 H          50.5631  191.5283   99.3460 H         9        0    0.0000
     58 H          48.9545  190.8137   99.3398 H         9        0    0.0000
     59 H          48.1714  192.6177   97.7453 H         9        0    0.0000
     60 H          49.7930  193.3024   97.7360 H         9        0    0.0000
     61 C          49.6384  191.3914   96.6899 C.3      10        0    0.0000
     62 C          49.3832  191.9987   95.3061 C.3      10        0    0.0000
     63 H          50.6994  191.1342   96.7980 H        10        0    0.0000
     64 H          49.0749  190.4567   96.8003 H        10        0    0.0000
     65 H          48.3225  192.2572   95.1985 H        10        0    0.0000
     66 H          49.9479  192.9327   95.1952 H        10        0    0.0000
     67 C          49.7858  191.0240   94.1461 C.3      11        0    0.0000
     68 C          49.5368  191.6339   92.7623 C.3      11        0    0.0000
     69 H          50.8453  190.7616   94.2565 H        11        0    0.0000
     70 H          49.2174  190.0919   94.2542 H        11        0    0.0000
     71 H          48.4771  191.8950   92.6514 H        11        0    0.0000
     72 H          50.1040  192.5668   92.6547 H        11        0    0.0000
     73 C          49.9414  190.6600   91.6023 C.3      12        0    0.0000
     74 C          49.6902  191.2690   90.2185 C.3      12        0    0.0000
     75 H          51.0016  190.4004   91.7122 H        12        0    0.0000
     76 H          49.3755  189.7265   91.7109 H        12        0    0.0000
     77 H          48.6295  191.5266   90.1078 H        12        0    0.0000
     78 H          50.2543  192.2037   90.1107 H        12        0    0.0000
     79 C          50.0976  190.2963   89.0585 C.3      13        0    0.0000
     80 C          49.8396  190.9024   87.6747 C.3      13        0    0.0000
     81 H          51.1595  190.0429   89.1662 H        13        0    0.0000
     82 H          49.5373  189.3596   89.1693 H        13        0    0.0000
     83 H          48.7772  191.1536   87.5661 H        13        0    0.0000
     84 H          50.3979  191.8404   87.5648 H        13        0    0.0000
     85 C          50.2503  189.9311   86.5147 C.3      14        0    0.0000
     86 C          49.9846  190.5340   85.1309 C.3      14        0    0.0000
     87 H          51.3141  189.6847   86.6198 H        14        0    0.0000
     88 H          49.6964  188.9909   86.6281 H        14        0    0.0000
     89 H          48.9209  190.7808   85.0260 H        14        0    0.0000
     90 H          50.5389  191.4739   85.0174 H        14        0    0.0000
     91 C          50.3946  189.5624   83.9710 C.3      15        0    0.0000
     92 C          50.1362  190.1683   82.5871 C.3      15        0    0.0000
     93 H          51.4570  189.3110   84.0791 H        15        0    0.0000
     94 H          49.8361  188.6246   84.0813 H        15        0    0.0000
     95 H          49.0630  190.3510   82.4509 H        15        0    0.0000
     96 H          50.6346  191.1420   82.5037 H        15        0    0.0000
     97 C          50.6419  189.2410   81.4287 C.3      16        0    0.0000
     98 C          50.3921  189.8512   80.0451 C.3      16        0    0.0000
     99 H          51.7135  189.0526   81.5688 H        16        0    0.0000
    100 H          50.1382  188.2696   81.5079 H        16        0    0.0000
    101 H          49.3164  189.9983   79.8875 H        16        0    0.0000
    102 H          50.8583  190.8423   79.9813 H        16        0    0.0000
    103 C          50.9539  188.9532   78.8895 C.3      17        0    0.0000
    104 C          51.7605  189.7605   77.8664 C.3      17        0    0.0000
    105 H          51.5810  188.1661   79.3263 H        17        0    0.0000
    106 H          50.1151  188.4490   78.3938 H        17        0    0.0000
    107 H          51.0878  190.2015   77.1205 H        17        0    0.0000
    108 H          52.2704  190.5951   78.3634 H        17        0    0.0000
    109 C          52.8293  188.8837   77.1272 C.3      18        0    0.0000
    110 C          52.3871  188.5005   75.7106 C.3      18        0    0.0000
    111 H          53.7757  189.4373   77.0890 H        18        0    0.0000
    112 H          53.0167  187.9799   77.7202 H        18        0    0.0000
    113 H          51.2980  188.5948   75.6181 H        18        0    0.0000
    114 H          52.8263  189.1908   74.9798 H        18        0    0.0000
    115 C          52.8012  187.0360   75.3348 C.3      19        0    0.0000
    116 C          52.5176  186.7115   73.8639 C.3      19        0    0.0000
    117 H          53.8688  186.9041   75.5500 H        19        0    0.0000
    118 H          52.2601  186.3376   75.9851 H        19        0    0.0000
    119 H          51.4352  186.6742   73.6889 H        19        0    0.0000
    120 H          52.9136  187.5067   73.2202 H        19        0    0.0000
    121 C          53.1479  185.3450   73.4248 C.3      20        0    0.0000
    122 C          53.3757  185.2703   71.9110 C.3      20        0    0.0000
    123 H          54.0981  185.2071   73.9554 H        20        0    0.0000
    124 H          52.4865  184.5310   73.7463 H        20        0    0.0000
    125 H          52.4156  185.1643   71.3909 H        20        0    0.0000
    126 H          53.8272  186.2035   71.5520 H        20        0    0.0000
    127 C          54.3034  184.0725   71.5082 C.3      21        0    0.0000
    128 C          55.3238  184.4639   70.4337 C.3      21        0    0.0000
    129 H          54.8215  183.7096   72.4046 H        21        0    0.0000
    130 H          53.6778  183.2458   71.1496 H        21        0    0.0000
    131 H          54.8115  184.6697   69.4857 H        21        0    0.0000
    132 H          55.8371  185.3897   70.7218 H        21        0    0.0000
    133 C          56.3955  183.3447   70.1963 C.3      22        0    0.0000
    134 C          56.8179  183.2474   68.7262 C.3      22        0    0.0000
    135 H          57.2695  183.5528   70.8258 H        22        0    0.0000
    136 H          55.9853  182.3849   70.5341 H        22        0    0.0000
    137 H          56.6274  184.1999   68.2163 H        22        0    0.0000
    138 H          57.8971  183.0630   68.6563 H        22        0    0.0000
    139 C          56.0599  182.1060   67.9645 C.3      23        0    0.0000
    140 C          57.0171  181.0560   67.3901 C.3      23        0    0.0000
    141 H          55.3507  181.6314   68.6539 H        23        0    0.0000
    142 H          55.4647  182.5533   67.1588 H        23        0    0.0000
    143 H          56.5092  180.4673   66.6161 H        23        0    0.0000
    144 H          57.8680  181.5487   66.9035 H        23        0    0.0000
    145 C          57.5600  180.0812   68.4913 C.3      24        0    0.0000
    146 C          58.7954  179.3049   68.0220 C.3      24        0    0.0000
    147 H          57.7998  180.6620   69.3905 H        24        0    0.0000
    148 H          56.7610  179.3833   68.7707 H        24        0    0.0000
    149 H          58.4945  178.4835   67.3600 H        24        0    0.0000
    150 H          59.4502  179.9599   67.4339 H        24        0    0.0000
    151 C          59.6160  178.7138   69.2198 C.3      25        0    0.0000
    152 C          59.5990  177.1814   69.2354 C.3      25        0    0.0000
    153 H          60.6488  179.0779   69.1547 H        25        0    0.0000
    154 H          59.2029  179.1041   70.1582 H        25        0    0.0000
    155 H          59.3384  176.7979   68.2411 H        25        0    0.0000
    156 H          60.5993  176.7964   69.4693 H        25        0    0.0000
    157 C          58.5803  176.6091   70.2805 C.3      26        0    0.0000
    158 C          59.2505  175.6735   71.2927 C.3      26        0    0.0000
    159 H          58.1010  177.4466   70.8024 H        26        0    0.0000
    160 H          57.7856  176.0758   69.7443 H        26        0    0.0000
    161 H          59.1217  174.6292   70.9824 H        26        0    0.0000
    162 H          60.3308  175.8626   71.3219 H        26        0    0.0000
    163 C          58.6681  175.8466   72.7379 C.3      27        0    0.0000
    164 C          58.2280  174.5124   73.3504 C.3      27        0    0.0000
    165 H          59.4291  176.3186   73.3716 H        27        0    0.0000
    166 H          57.8188  176.5397   72.6962 H        27        0    0.0000
    167 H          57.5791  173.9726   72.6496 H        27        0    0.0000
    168 H          59.1019  173.8730   73.5269 H        27        0    0.0000
    169 C          57.4608  174.7044   74.7039 C.3      28        0    0.0000
    170 C          57.9110  173.7035   75.7738 C.3      28        0    0.0000
    171 H          57.6198  175.7304   75.0581 H        28        0    0.0000
    172 H          56.3848  174.5983   74.5186 H        28        0    0.0000
    173 H          57.2227  172.8497   75.8036 H        28        0    0.0000
    174 H          58.9001  173.3020   75.5209 H        28        0    0.0000
    175 C          57.9775  174.3490   77.2008 C.3      29        0    0.0000
    176 C          58.7333  173.4684   78.2020 C.3      29        0    0.0000
    177 H          58.4615  175.3304   77.1228 H        29        0    0.0000
    178 H          56.9550  174.5292   77.5553 H        29        0    0.0000
    179 H          58.1158  172.6074   78.4867 H        29        0    0.0000
    180 H          59.6415  173.0649   77.7373 H        29        0    0.0000
    181 C          59.1347  174.2529   79.4984 C.3      30        0    0.0000
    182 C          59.8568  173.3627   80.5159 C.3      30        0    0.0000
    183 H          59.7753  175.0977   79.2164 H        30        0    0.0000
    184 H          58.2297  174.6801   79.9478 H        30        0    0.0000
    185 H          59.5270  172.3222   80.4061 H        30        0    0.0000
    186 H          60.9370  173.3727   80.3247 H        30        0    0.0000
    187 C          59.6008  173.8207   81.9931 C.3      31        0    0.0000
    188 C          60.2670  172.8908   83.0132 C.3      31        0    0.0000
    189 H          59.9760  174.8443   82.1160 H        31        0    0.0000
    190 H          58.5186  173.8586   82.1692 H        31        0    0.0000
    191 H          59.9370  171.8571   82.8515 H        31        0    0.0000
    192 H          61.3553  172.8993   82.8754 H        31        0    0.0000
    193 C          59.9415  173.2997   84.4912 C.3      32        0    0.0000
    194 C          60.6218  172.3803   85.5114 C.3      32        0    0.0000
    195 H          60.2599  174.3376   84.6491 H        32        0    0.0000
    196 H          58.8538  173.2789   84.6325 H        32        0    0.0000
    197 H          60.2962  171.3438   85.3594 H        32        0    0.0000
    198 H          61.7088  172.3940   85.3641 H        32        0    0.0000
    199 C          60.3069  172.7972   86.9895 C.3      33        0    0.0000
    200 C          60.9889  171.8791   88.0098 C.3      33        0    0.0000
    201 H          60.6309  173.8343   87.1410 H        33        0    0.0000
    202 H          59.2200  172.7820   87.1373 H        33        0    0.0000
    203 H          60.6633  170.8423   87.8595 H        33        0    0.0000
    204 H          62.0757  171.8928   87.8607 H        33        0    0.0000
    205 C          60.6763  172.2976   89.4878 C.3      34        0    0.0000
    206 C          61.3589  171.3799   90.5081 C.3      34        0    0.0000
    207 H          61.0014  173.3346   89.6380 H        34        0    0.0000
    208 H          59.5895  172.2835   89.6370 H        34        0    0.0000
    209 H          61.0351  170.3427   90.3568 H        34        0    0.0000
    210 H          62.4458  171.3954   90.3600 H        34        0    0.0000
    211 C          61.0443  171.7970   91.9861 C.3      35        0    0.0000
    212 C          62.0461  171.2037   92.9828 C.3      35        0    0.0000
    213 H          61.0503  172.8919   92.0535 H        35        0    0.0000
    214 H          60.0270  171.4715   92.2365 H        35        0    0.0000
    215 H          61.9929  170.1081   92.9625 H        35        0    0.0000
    216 H          63.0692  171.4747   92.6943 H        35        0    0.0000
    217 C          61.7875  171.6951   94.4488 C.3      36        0    0.0000
    218 C          61.7081  170.5333   95.4453 C.3      36        0    0.0000
    219 H          62.5907  172.3842   94.7376 H        36        0    0.0000
    220 H          60.8548  172.2723   94.4689 H        36        0    0.0000
    221 H          61.1836  169.6835   94.9914 H        36        0    0.0000
    222 H          62.7172  170.1832   95.6961 H        36        0    0.0000
    223 C          60.9694  170.9348   96.7684 C.3      37        0    0.0000
    224 C          61.9061  170.9290   97.9815 C.3      37        0    0.0000
    225 H          60.5281  171.9308   96.6386 H        37        0    0.0000
    226 H          60.1363  170.2402   96.9330 H        37        0    0.0000
    227 H          61.9989  169.9111   98.3801 H        37        0    0.0000
    228 H          62.9133  171.2425   97.6805 H        37        0    0.0000
    229 C          61.4029  171.8756   99.1252 C.3      38        0    0.0000
    230 C          61.6452  171.2836  100.5180 C.3      38        0    0.0000
    231 H          61.9126  172.8428   99.0337 H        38        0    0.0000
    232 H          60.3328  172.0685   98.9794 H        38        0    0.0000
    233 H          61.3027  170.2418  100.5487 H        38        0    0.0000
    234 H          62.7198  171.2685  100.7385 H        38        0    0.0000
    235 C          60.9099  172.0907  101.6428 C.3      39        0    0.0000
    236 C          61.2952  171.6128  103.0471 C.3      39        0    0.0000
    237 H          61.1497  173.1551  101.5287 H        39        0    0.0000
    238 H          59.8269  171.9944  101.4967 H        39        0    0.0000
    239 H          61.0172  170.5593  103.1755 H        39        0    0.0000
    240 H          62.3829  171.6699  103.1786 H        39        0    0.0000
    241 C          60.6052  172.4582  104.1726 C.3      40        0    0.0000
    242 C          60.9918  171.9814  105.5769 C.3      40        0    0.0000
    243 H          60.8822  173.5118  104.0435 H        40        0    0.0000
    244 H          59.5175  172.4001  104.0418 H        40        0    0.0000
    245 H          60.7160  170.9274  105.7055 H        40        0    0.0000
    246 H          62.0794  172.0406  105.7081 H        40        0    0.0000
    247 C          60.3003  172.8256  106.7023 C.3      41        0    0.0000
    248 C          60.6936  172.3542  108.1067 C.3      41        0    0.0000
    249 H          60.5713  173.8804  106.5700 H        41        0    0.0000
    250 H          59.2126  172.7613  106.5748 H        41        0    0.0000
    251 H          60.4238  171.2991  108.2386 H        41        0    0.0000
    252 H          61.7812  172.4196  108.2346 H        41        0    0.0000
    253 C          60.0009  173.1974  109.2321 C.3      42        0    0.0000
    254 C          60.3938  172.7257  110.6364 C.3      42        0    0.0000
    255 H          60.2710  174.2525  109.1004 H        42        0    0.0000
    256 H          58.9133  173.1323  109.1040 H        42        0    0.0000
    257 H          60.1250  171.6702  110.7676 H        42        0    0.0000
    258 H          61.4813  172.7922  110.7651 H        42        0    0.0000
    259 C          59.6994  173.5675  111.7619 C.3      43        0    0.0000
    260 C          60.0878  173.0921  113.1662 C.3      43        0    0.0000
    261 H          59.9715  174.6225  111.6332 H        43        0    0.0000
    262 H          58.6120  173.5045  111.6307 H        43        0    0.0000
    263 H          59.8124  172.0381  113.2961 H        43        0    0.0000
    264 H          61.1755  173.1519  113.2962 H        43        0    0.0000
    265 C          59.3972  173.9371  114.2916 C.3      44        0    0.0000
    266 C          59.7856  173.4616  115.6960 C.3      44        0    0.0000
    267 H          59.6726  174.9911  114.1618 H        44        0    0.0000
    268 H          58.3095  173.8774  114.1617 H        44        0    0.0000
    269 H          59.5133  172.4067  115.8246 H        44        0    0.0000
    270 H          60.8729  173.5246  115.8271 H        44        0    0.0000
    271 C          59.0913  174.3036  116.8214 C.3      45        0    0.0000
    272 C          59.4815  173.8296  118.2257 C.3      45        0    0.0000
    273 H          59.3621  175.3587  116.6917 H        45        0    0.0000
    274 H          58.0039  174.2391  116.6913 H        45        0    0.0000
    275 H          59.1068  174.5345  118.9783 H        45        0    0.0000
    276 H          59.0124  172.8613  118.4398 H        45        0    0.0000
    277 C          61.0335  173.6877  118.3950 C.3      46        0    0.0000
    278 C          61.4122  172.9500  119.6839 C.3      46        0    0.0000
    279 H          61.4369  173.1554  117.5246 H        46        0    0.0000
    280 H          61.4829  174.6884  118.3883 H        46        0    0.0000
    281 H          61.7237  171.9239  119.4524 H        46        0    0.0000
    282 H          62.2707  173.4402  120.1596 H        46        0    0.0000
    283 C          60.2275  172.8992  120.7093 C.3      47        0    0.0000
    284 C          60.5822  172.0994  121.9676 C.3      47        0    0.0000
    285 H          59.9510  173.9254  120.9813 H        47        0    0.0000
    286 H          59.3524  172.4572  120.2169 H        47        0    0.0000
    287 H          61.5080  172.4867  122.4109 H        47        0    0.0000
    288 H          59.7965  172.2196  122.7238 H        47        0    0.0000
    289 C          60.7660  170.5716  121.6684 C.3      48        0    0.0000
    290 C          60.0454  169.6882  122.6929 C.3      48        0    0.0000
    291 H          60.3898  170.3611  120.6596 H        48        0    0.0000
    292 H          61.8382  170.3394  121.6596 H        48        0    0.0000
    293 H          60.4216  169.8987  123.7017 H        48        0    0.0000
    294 H          58.9733  169.9204  122.7017 H        48        0    0.0000
    295 H          60.1732  168.6259  122.4848 H        48        0    0.0000
    296 H          49.2798  191.7487  121.7450 H         0        0    0.0000
@<TRIPOS>BOND
     1     1     2      1
     2     1     3      1
     3     1     4      1
     4     1   296      H
     5     2     5      1
     6     2     6      1
     7     2     7      1
     8     7     8      1
     9     7     9      1
    10     7    10      1
    11     8    11      1
    12     8    12      1
    13     8    13      1
    14    13    14      1
    15    13    15      1
    16    13    16      1
    17    14    17      1
    18    14    18      1
    19    14    19      1
    20    19    20      1
    21    19    21      1
    22    19    22      1
    23    20    23      1
    24    20    24      1
    25    20    25      1
    26    25    26      1
    27    25    27      1
    28    25    28      1
    29    26    29      1
    30    26    30      1
    31    26    31      1
    32    31    32      1
    33    31    33      1
    34    31    34      1
    35    32    35      1
    36    32    36      1
    37    32    37      1
    38    37    38      1
    39    37    39      1
    40    37    40      1
    41    38    41      1
    42    38    42      1
    43    38    43      1
    44    43    44      1
    45    43    45      1
    46    43    46      1
    47    44    47      1
    48    44    48      1
    49    44    49      1
    50    49    50      1
    51    49    51      1
    52    49    52      1
    53    50    53      1
    54    50    54      1
    55    50    55      1
    56    55    56      1
    57    55    57      1
    58    55    58      1
    59    56    59      1
    60    56    60      1
    61    56    61      1
    62    61    62      1
    63    61    63      1
    64    61    64      1
    65    62    65      1
    66    62    66      1
    67    62    67      1
    68    67    68      1
    69    67    69      1
    70    67    70      1
    71    68    71      1
    72    68    72      1
    73    68    73      1
    74    73    74      1
    75    73    75      1
    76    73    76      1
    77    74    77      1
    78    74    78      1
    79    74    79      1
    80    79    80      1
    81    79    81      1
    82    79    82      1
    83    80    83      1
    84    80    84      1
    85    80    85      1
    86    85    86      1
    87    85    87      1
    88    85    88      1
    89    86    89      1
    90    86    90      1
    91    86    91      1
    92    91    92      1
    93    91    93      1
    94    91    94      1
    95    92    95      1
    96    92    96      1
    97    92    97      1
    98    97    98      1
    99    97    99      1
   100    97   100      1
   101    98   101      1
   102    98   102      1
   103    98   103      1
   104   103   104      1
   105   103   105      1
   106   103   106      1
   107   104   107      1
   108   104   108      1
   109   104   109      1
   110   109   110      1
   111   109   111      1
   112   109   112      1
   113   110   113      1
   114   110   114      1
   115   110   115      1
   116   115   116      1
   117   115   117      1
   118   115   118      1
   119   116   119      1
   120   116   120      1
   121   116   121      1
   122   121   122      1
   123   121   123      1
   124   121   124      1
   125   122   125      1
   126   122   126      1
   127   122   127      1
   128   127   128      1
   129   127   129      1
   130   127   130      1
   131   128   131      1
   132   128   132      1
   133   128   133      1
   134   133   134      1
   135   133   135      1
   136   133   136      1
   137   134   137      1
   138   134   138      1
   139   134   139      1
   140   139   140      1
   141   139   141      1
   142   139   142      1
   143   140   143      1
   144   140   144      1
   145   140   145      1
   146   145   146      1
   147   145   147      1
   148   145   148      1
   149   146   149      1
   150   146   150      1
   151   146   151      1
   152   151   152      1
   153   151   153      1
   154   151   154      1
   155   152   155      1
   156   152   156      1
   157   152   157      1
   158   157   158      1
   159   157   159      1
   160   157   160      1
   161   158   161      1
   162   158   162      1
   163   158   163      1
   164   163   164      1
   165   163   165      1
   166   163   166      1
   167   164   167      1
   168   164   168      1
   169   164   169      1
   170   169   170      1
   171   169   171      1
   172   169   172      1
   173   170   173      1
   174   170   174      1
   175   170   175      1
   176   175   176      1
   177   175   177      1
   178   175   178      1
   179   176   179      1
   180   176   180      1
   181   176   181      1
   182   181   182      1
   183   181   183      1
   184   181   184      1
   185   182   185      1
   186   182   186      1
   187   182   187      1
   188   187   188      1
   189   187   189      1
   190   187   190      1
   191   188   191      1
   192   188   192      1
   193   188   193      1
   194   193   194      1
   195   193   195      1
   196   193   196      1
   197   194   197      1
   198   194   198      1
   199   194   199      1
   200   199   200      1
   201   199   201      1
   202   199   202      1
   203   200   203      1
   204   200   204      1
   205   200   205      1
   206   205   206      1
   207   205   207      1
   208   205   208      1
   209   206   209      1
   210   206   210      1
   211   206   211      1
   212   211   212      1
   213   211   213      1
   214   211   214      1
   215   212   215      1
   216   212   216      1
   217   212   217      1
   218   217   218      1
   219   217   219      1
   220   217   220      1
   221   218   221      1
   222   218   222      1
   223   218   223      1
   224   223   224      1
   225   223   225      1
   226   223   226      1
   227   224   227      1
   228   224   228      1
   229   224   229      1
   230   229   230      1
   231   229   231      1
   232   229   232      1
   233   230   233      1
   234   230   234      1
   235   230   235      1
   236   235   236      1
   237   235   237      1
   238   235   238      1
   239   236   239      1
   240   236   240      1
   241   236   241      1
   242   241   242      1
   243   241   243      1
   244   241   244      1
   245   242   245      1
   246   242   246      1
   247   242   247      1
   248   247   248      1
   249   247   249      1
   250   247   250      1
   251   248   251      1
   252   248   252      1
   253   248   253      1
   254   253   254      1
   255   253   255      1
   256   253   256      1
   257   254   257      1
   258   254   258      1
   259   254   259      1
   260   259   260      1
   261   259   261      1
   262   259   262      1
   263   260   263      1
   264   260   264      1
   265   260   265      1
   266   265   266      1
   267   265   267      1
   268   265   268      1
   269   266   269      1
   270   266   270      1
   271   266   271      1
   272   271   272      1
   273   271   273      1
   274   271   274      1
   275   272   275      1
   276   272   276      1
   277   272   277      1
   278   277   278      1
   279   277   279      1
   280   277   280      1
   281   278   281      1
   282   278   282      1
   283   278   283      1
   284   283   284      1
   285   283   285      1
   286   283   286      1
   287   284   287      1
   288   284   288      1
   289   284   289      1
   290   289   290      1
   291   289   291      1
   292   289   292      1
   293   290   293      1
   294   290   294      1
   295   290   295      H
