###
### Created by PolyChef-cpp17 on Thu Feb 27 19:40:28 2025
###

@<TRIPOS>MOLECULE
NO_INFO
290 289 1 0 0
SMALL
USER_CHARGES


@<TRIPOS>ATOM
      1 C         109.2798  157.1087  120.6551 C.3       0        0    0.0000
      2 C         108.4513  155.9575  120.0742 C.3       0        0    0.0000
      3 H         108.8875  158.0703  120.3015 H         0        0    0.0000
      4 H         110.3162  157.0421  120.3014 H         0        0    0.0000
      5 H         108.4073  155.1272  120.7899 H         0        0    0.0000
      6 H         107.4175  156.2848  119.9074 H         0        0    0.0000
      7 C         109.0380  155.4272  118.7207 C.3       1        0    0.0000
      8 C         109.6363  156.5509  117.8671 C.3       1        0    0.0000
      9 H         109.8034  154.6722  118.9387 H         1        0    0.0000
     10 H         108.2411  154.9169  118.1656 H         1        0    0.0000
     11 H         108.9476  157.4041  117.8321 H         1        0    0.0000
     12 H         110.5658  156.9147  118.3222 H         1        0    0.0000
     13 C         109.9397  156.0860  116.4010 C.3       2        0    0.0000
     14 C         109.8987  157.2484  115.4029 C.3       2        0    0.0000
     15 H         110.9260  155.6060  116.3792 H         2        0    0.0000
     16 H         109.2096  155.3187  116.1151 H         2        0    0.0000
     17 H         108.9852  157.8380  115.5494 H         2        0    0.0000
     18 H         110.7429  157.9262  115.5800 H         2        0    0.0000
     19 C         109.9493  156.7562  113.9154 C.3       3        0    0.0000
     20 C         109.8236  157.9119  112.9166 C.3       3        0    0.0000
     21 H         110.8918  156.2190  113.7525 H         3        0    0.0000
     22 H         109.1417  156.0311  113.7552 H         3        0    0.0000
     23 H         108.8859  158.4554  113.0862 H         3        0    0.0000
     24 H         110.6372  158.6317  113.0700 H         3        0    0.0000
     25 C         109.8595  157.4182  111.4292 C.3       4        0    0.0000
     26 C         109.8402  158.5807  110.4306 C.3       4        0    0.0000
     27 H         110.7599  156.8094  111.2803 H         4        0    0.0000
     28 H         109.0007  156.7582  111.2548 H         4        0    0.0000
     29 H         108.9313  159.1795  110.5680 H         4        0    0.0000
     30 H         110.6894  159.2501  110.6161 H         4        0    0.0000
     31 C         109.9007  158.0879  108.9437 C.3       5        0    0.0000
     32 C         108.8241  158.7420  108.0707 C.3       5        0    0.0000
     33 H         110.8968  158.3060  108.5392 H         5        0    0.0000
     34 H         109.7862  156.9969  108.9279 H         5        0    0.0000
     35 H         107.8714  158.7794  108.6132 H         5        0    0.0000
     36 H         109.1004  159.7800  107.8474 H         5        0    0.0000
     37 C         108.6072  157.9753  106.7207 C.3       6        0    0.0000
     38 C         108.9417  158.8408  105.5009 C.3       6        0    0.0000
     39 H         109.2297  157.0720  106.7231 H         6        0    0.0000
     40 H         107.5642  157.6390  106.6687 H         6        0    0.0000
     41 H         108.0477  159.3820  105.1670 H         6        0    0.0000
     42 H         109.6867  159.5995  105.7709 H         6        0    0.0000
     43 C         109.4952  157.9926  104.3044 C.3       7        0    0.0000
     44 C         108.9056  158.4315  102.9595 C.3       7        0    0.0000
     45 H         110.5884  158.0824  104.2831 H         7        0    0.0000
     46 H         109.2695  156.9346  104.4867 H         7        0    0.0000
     47 H         107.8160  158.5298  103.0406 H         7        0    0.0000
     48 H         109.2916  159.4209  102.6845 H         7        0    0.0000
     49 C         109.2374  157.4216  101.8074 C.3       8        0    0.0000
     50 C         109.0460  158.0412  100.4187 C.3       8        0    0.0000
     51 H         110.2722  157.0771  101.9262 H         8        0    0.0000
     52 H         108.5967  156.5377  101.9165 H         8        0    0.0000
     53 H         107.9926  158.3076  100.2676 H         8        0    0.0000
     54 H         109.6208  158.9723  100.3398 H         8        0    0.0000
     55 C         109.4921  157.0729   99.2694 C.3       9        0    0.0000
     56 C         109.2263  157.6604   97.8790 C.3       9        0    0.0000
     57 H         110.5605  156.8532   99.3870 H         9        0    0.0000
     58 H         108.9602  156.1202   99.3833 H         9        0    0.0000
     59 H         108.1602  157.8936   97.7668 H         9        0    0.0000
     60 H         109.7699  158.6058   97.7598 H         9        0    0.0000
     61 C         109.6535  156.6836   96.7298 C.3      10        0    0.0000
     62 C         109.3688  157.2625   95.3395 C.3      10        0    0.0000
     63 H         110.7230  156.4621   96.8332 H        10        0    0.0000
     64 H         109.1211  155.7329   96.8576 H        10        0    0.0000
     65 H         108.2973  157.4721   95.2315 H        10        0    0.0000
     66 H         109.8909  158.2195   95.2164 H        10        0    0.0000
     67 C         109.8124  156.2933   94.1900 C.3      11        0    0.0000
     68 C         109.5363  156.8763   92.7997 C.3      11        0    0.0000
     69 H         110.8823  156.0783   94.3020 H        11        0    0.0000
     70 H         109.2850  155.3387   94.3092 H        11        0    0.0000
     71 H         108.4652  157.0843   92.6850 H        11        0    0.0000
     72 H         110.0575  157.8346   92.6834 H        11        0    0.0000
     73 C         109.9897  155.9117   91.6502 C.3      12        0    0.0000
     74 C         109.7132  156.4945   90.2600 C.3      12        0    0.0000
     75 H         111.0608  155.7040   91.7649 H        12        0    0.0000
     76 H         109.4687  154.9533   91.7668 H        12        0    0.0000
     77 H         108.6423  156.7036   90.1459 H        12        0    0.0000
     78 H         110.2354  157.4522   90.1429 H        12        0    0.0000
     79 C         110.1647  155.5289   89.1105 C.3      13        0    0.0000
     80 C         109.8908  156.1130   87.7202 C.3      13        0    0.0000
     81 H         111.2351  155.3181   89.2257 H        13        0    0.0000
     82 H         109.6409  154.5720   89.2263 H        13        0    0.0000
     83 H         108.8183  156.3100   87.5995 H        13        0    0.0000
     84 H         110.4026  157.0770   87.6096 H        13        0    0.0000
     85 C         110.3613  155.1565   86.5707 C.3      14        0    0.0000
     86 C         110.0938  155.7436   85.1805 C.3      14        0    0.0000
     87 H         111.4327  154.9554   86.6944 H        14        0    0.0000
     88 H         109.8457  154.1941   86.6782 H        14        0    0.0000
     89 H         109.0134  155.8202   85.0060 H        14        0    0.0000
     90 H         110.4960  156.7624   85.1187 H        14        0    0.0000
     91 C         110.7301  154.8790   84.0380 C.3      15        0    0.0000
     92 C         110.4674  155.4692   82.6481 C.3      15        0    0.0000
     93 H         111.8098  154.7989   84.2148 H        15        0    0.0000
     94 H         110.3248  153.8613   84.0973 H        15        0    0.0000
     95 H         109.6091  156.1515   82.6853 H        15        0    0.0000
     96 H         111.3295  156.0649   82.3234 H        15        0    0.0000
     97 C         110.1860  154.3611   81.5756 C.3      16        0    0.0000
     98 C         109.9555  154.9493   80.1793 C.3      16        0    0.0000
     99 H         111.0339  153.6652   81.5553 H        16        0    0.0000
    100 H         109.3094  153.7805   81.8886 H        16        0    0.0000
    101 H         109.0438  155.5596   80.1740 H        16        0    0.0000
    102 H         110.7833  155.6174   79.9112 H        16        0    0.0000
    103 C         109.8265  153.8386   79.0805 C.3      17        0    0.0000
    104 C         109.5596  154.4254   77.6900 C.3      17        0    0.0000
    105 H         110.7490  153.2451   79.0677 H        17        0    0.0000
    106 H         109.0160  153.1550   79.3623 H        17        0    0.0000
    107 H         108.7114  155.1200   77.7313 H        17        0    0.0000
    108 H         110.4270  155.0070   77.3543 H        17        0    0.0000
    109 C         109.2527  153.3159   76.6260 C.3      18        0    0.0000
    110 C         108.9822  153.9028   75.2362 C.3      18        0    0.0000
    111 H         110.1020  152.6228   76.5828 H        18        0    0.0000
    112 H         108.3868  152.7325   76.9629 H        18        0    0.0000
    113 H         108.1707  154.6390   75.2902 H        18        0    0.0000
    114 H         109.8692  154.4377   74.8747 H        18        0    0.0000
    115 C         108.5958  152.8006   74.1907 C.3      19        0    0.0000
    116 C         108.2571  153.3944   72.8189 C.3      19        0    0.0000
    117 H         109.4289  152.0927   74.0988 H        19        0    0.0000
    118 H         107.7404  152.2320   74.5761 H        19        0    0.0000
    119 H         107.4673  154.1490   72.9204 H        19        0    0.0000
    120 H         109.1331  153.9089   72.4050 H        19        0    0.0000
    121 C         107.7841  152.3019   71.7990 C.3      20        0    0.0000
    122 C         106.6275  152.7900   70.9198 C.3      20        0    0.0000
    123 H         108.6361  152.0108   71.1722 H        20        0    0.0000
    124 H         107.4816  151.4061   72.3553 H        20        0    0.0000
    125 H         105.9111  153.3610   71.5234 H        20        0    0.0000
    126 H         107.0038  153.4727   70.1479 H        20        0    0.0000
    127 C         105.8709  151.6071   70.2227 C.3      21        0    0.0000
    128 C         104.3517  151.8092   70.2223 C.3      21        0    0.0000
    129 H         106.2378  151.5105   69.1933 H        21        0    0.0000
    130 H         106.1259  150.6722   70.7371 H        21        0    0.0000
    131 H         104.0565  152.4445   71.0666 H        21        0    0.0000
    132 H         104.0422  152.3339   69.3099 H        21        0    0.0000
    133 C         103.5718  150.4524   70.3141 C.3      22        0    0.0000
    134 C         103.1433  149.9344   68.9367 C.3      22        0    0.0000
    135 H         104.2086  149.7116   70.8132 H        22        0    0.0000
    136 H         102.6916  150.5931   70.9536 H        22        0    0.0000
    137 H         102.1037  150.2201   68.7341 H        22        0    0.0000
    138 H         103.7558  150.3978   68.1533 H        22        0    0.0000
    139 C         103.2706  148.3762   68.8221 C.3      23        0    0.0000
    140 C         101.9087  147.6928   68.6565 C.3      23        0    0.0000
    141 H         103.9181  148.1360   67.9697 H        23        0    0.0000
    142 H         103.7758  147.9957   69.7185 H        23        0    0.0000
    143 H         101.1223  148.3054   69.1145 H        23        0    0.0000
    144 H         101.6592  147.6043   67.5919 H        23        0    0.0000
    145 C         101.8779  146.2650   69.3030 C.3      24        0    0.0000
    146 C         100.5481  145.9750   70.0075 C.3      24        0    0.0000
    147 H         102.0595  145.5184   68.5200 H        24        0    0.0000
    148 H         102.7074  146.1818   70.0161 H        24        0    0.0000
    149 H         100.2552  146.8324   70.6260 H        24        0    0.0000
    150 H          99.7521  145.8350   69.2657 H        24        0    0.0000
    151 C         100.6226  144.6992   70.9154 C.3      25        0    0.0000
    152 C          99.4712  143.7248   70.6437 C.3      25        0    0.0000
    153 H         101.5851  144.2006   70.7464 H        25        0    0.0000
    154 H         100.6104  145.0122   71.9668 H        25        0    0.0000
    155 H          98.5336  144.1293   71.0446 H        25        0    0.0000
    156 H          99.3263  143.6058   69.5628 H        25        0    0.0000
    157 C          99.7248  142.3138   71.2779 C.3      26        0    0.0000
    158 C          98.6399  141.9282   72.2895 C.3      26        0    0.0000
    159 H          99.7720  141.5683   70.4744 H        26        0    0.0000
    160 H         100.7084  142.3161   71.7637 H        26        0    0.0000
    161 H          98.1160  142.8261   72.6399 H        26        0    0.0000
    162 H          97.8868  141.2914   71.8091 H        26        0    0.0000
    163 C          99.2265  141.1693   73.5295 C.3      27        0    0.0000
    164 C          98.4267  141.4409   74.8084 C.3      27        0    0.0000
    165 H          99.2367  140.0938   73.3135 H        27        0    0.0000
    166 H         100.2716  141.4728   73.6678 H        27        0    0.0000
    167 H          98.3367  142.5217   74.9734 H        27        0    0.0000
    168 H          97.4062  141.0522   74.7035 H        27        0    0.0000
    169 C          99.0879  140.7901   76.0720 C.3      28        0    0.0000
    170 C          98.0560  140.4271   77.1456 C.3      28        0    0.0000
    171 H          99.6383  139.8935   75.7610 H        28        0    0.0000
    172 H          99.8283  141.4877   76.4826 H        28        0    0.0000
    173 H          97.5814  141.3368   77.5340 H        28        0    0.0000
    174 H          97.2563  139.8169   76.7077 H        28        0    0.0000
    175 C          98.6946  139.6403   78.3416 C.3      29        0    0.0000
    176 C          97.8643  139.7590   79.6244 C.3      29        0    0.0000
    177 H          98.7976  138.5860   78.0565 H        29        0    0.0000
    178 H          99.7092  140.0207   78.5136 H        29        0    0.0000
    179 H          97.6342  140.8123   79.8274 H        29        0    0.0000
    180 H          96.9033  139.2450   79.4994 H        29        0    0.0000
    181 C          98.6027  139.1545   80.8681 C.3      30        0    0.0000
    182 C          98.0063  139.6441   82.1923 C.3      30        0    0.0000
    183 H          98.5495  138.0601   80.8134 H        30        0    0.0000
    184 H          99.6654  139.4214   80.8127 H        30        0    0.0000
    185 H          97.9528  140.7398   82.1985 H        30        0    0.0000
    186 H          96.9777  139.2779   82.2998 H        30        0    0.0000
    187 C          98.8428  139.1720   83.4313 C.3      31        0    0.0000
    188 C          98.2454  139.6602   84.7556 C.3      31        0    0.0000
    189 H          98.8972  138.0763   83.4244 H        31        0    0.0000
    190 H          99.8710  139.5392   83.3243 H        31        0    0.0000
    191 H          98.2049  140.7564   84.7686 H        31        0    0.0000
    192 H          97.2120  139.3055   84.8555 H        31        0    0.0000
    193 C          99.0699  139.1703   85.9956 C.3      32        0    0.0000
    194 C          98.4137  139.5667   87.3228 C.3      32        0    0.0000
    195 H          99.1777  138.0799   85.9402 H        32        0    0.0000
    196 H         100.0816  139.5904   85.9359 H        32        0    0.0000
    197 H          98.3261  140.6583   87.3878 H        32        0    0.0000
    198 H          97.3940  139.1652   87.3730 H        32        0    0.0000
    199 C          99.2218  139.0499   88.5627 C.3      33        0    0.0000
    200 C          98.5736  139.4590   89.8900 C.3      33        0    0.0000
    201 H          99.3000  137.9573   88.5034 H        33        0    0.0000
    202 H         100.2447  139.4425   88.5069 H        33        0    0.0000
    203 H          98.4901  140.5514   89.9468 H        33        0    0.0000
    204 H          97.5528  139.0616   89.9484 H        33        0    0.0000
    205 C          99.3861  138.9492   91.1299 C.3      34        0    0.0000
    206 C          98.7354  139.3544   92.4572 C.3      34        0    0.0000
    207 H          99.4725  137.8571   91.0713 H        34        0    0.0000
    208 H         100.4059  139.3494   91.0733 H        34        0    0.0000
    209 H          98.6504  140.4465   92.5165 H        34        0    0.0000
    210 H          97.7150  138.9555   92.5131 H        34        0    0.0000
    211 C          99.5466  138.8425   93.6971 C.3      35        0    0.0000
    212 C          98.8976  139.2502   95.0244 C.3      35        0    0.0000
    213 H          99.6298  137.7502   93.6389 H        35        0    0.0000
    214 H         100.5677  139.2397   93.6401 H        35        0    0.0000
    215 H          98.8100  140.3423   95.0805 H        35        0    0.0000
    216 H          97.8783  138.8489   95.0835 H        35        0    0.0000
    217 C          99.7125  138.7443   96.2643 C.3      36        0    0.0000
    218 C          99.0591  139.1448   97.5916 C.3      36        0    0.0000
    219 H          99.8053  137.6528   96.2050 H        36        0    0.0000
    220 H         100.7301  139.1505   96.2083 H        36        0    0.0000
    221 H          98.9646  140.2362   97.6501 H        36        0    0.0000
    222 H          98.0421  138.7371   97.6483 H        36        0    0.0000
    223 C          99.8753  138.6410   98.8315 C.3      37        0    0.0000
    224 C          99.2208  139.0397  100.1587 C.3      37        0    0.0000
    225 H          99.9711  137.5497   98.7721 H        37        0    0.0000
    226 H         100.8918  139.0500   98.7756 H        37        0    0.0000
    227 H          99.1231  140.1308  100.2172 H        37        0    0.0000
    228 H          98.2051  138.6290  100.2156 H        37        0    0.0000
    229 C         100.0386  138.5385  101.3987 C.3      38        0    0.0000
    230 C          99.3842  138.9375  102.7259 C.3      38        0    0.0000
    231 H         100.1361  137.4473  101.3404 H        38        0    0.0000
    232 H         101.0544  138.9490  101.3417 H        38        0    0.0000
    233 H          99.2883  140.0288  102.7850 H        38        0    0.0000
    234 H          98.3678  138.5284  102.7822 H        38        0    0.0000
    235 C         100.2007  138.4342  103.9659 C.3      39        0    0.0000
    236 C          99.5491  138.8377  105.2931 C.3      39        0    0.0000
    237 H         100.2933  137.3425  103.9088 H        39        0    0.0000
    238 H         101.2183  138.8401  103.9076 H        39        0    0.0000
    239 H          99.4546  139.9292  105.3493 H        39        0    0.0000
    240 H          98.5323  138.4300  105.3522 H        39        0    0.0000
    241 C         100.3672  138.3369  106.5331 C.3      40        0    0.0000
    242 C          99.7130  138.7362  107.8603 C.3      40        0    0.0000
    243 H         100.4647  137.2457  106.4751 H        40        0    0.0000
    244 H         101.3829  138.7474  106.4758 H        40        0    0.0000
    245 H          99.6179  139.8276  107.9194 H        40        0    0.0000
    246 H          98.6963  138.3279  107.9165 H        40        0    0.0000
    247 C         100.5291  138.2323  109.1002 C.3      41        0    0.0000
    248 C          99.8770  138.6349  110.4275 C.3      41        0    0.0000
    249 H         100.6218  137.1406  109.0426 H        41        0    0.0000
    250 H         101.5467  138.6384  109.0426 H        41        0    0.0000
    251 H          99.7812  139.7263  110.4837 H        41        0    0.0000
    252 H          98.8607  138.2260  110.4866 H        41        0    0.0000
    253 C         100.6956  138.1350  111.6674 C.3      42        0    0.0000
    254 C         100.0416  138.5347  112.9947 C.3      42        0    0.0000
    255 H         100.7936  137.0439  111.6099 H        42        0    0.0000
    256 H         101.7112  138.5460  111.6097 H        42        0    0.0000
    257 H          99.9468  139.6261  113.0537 H        42        0    0.0000
    258 H          99.0249  138.1266  113.0510 H        42        0    0.0000
    259 C         100.8578  138.0307  114.2346 C.3      43        0    0.0000
    260 C         100.2054  138.4329  115.5619 C.3      43        0    0.0000
    261 H         100.9507  136.9391  114.1768 H        43        0    0.0000
    262 H         101.8752  138.4370  114.1772 H        43        0    0.0000
    263 H         100.1091  139.5243  115.6182 H        43        0    0.0000
    264 H          99.1893  138.0236  115.6209 H        43        0    0.0000
    265 C         101.0242  137.9333  116.8018 C.3      44        0    0.0000
    266 C         100.3717  138.3354  118.1291 C.3      44        0    0.0000
    267 H         101.1205  136.8419  116.7454 H        44        0    0.0000
    268 H         102.0403  138.3427  116.7429 H        44        0    0.0000
    269 H         100.3300  139.4285  118.2118 H        44        0    0.0000
    270 H          99.3353  137.9772  118.1625 H        44        0    0.0000
    271 C         101.1440  137.7641  119.3678 C.3      45        0    0.0000
    272 C         100.4991  138.1772  120.6955 C.3      45        0    0.0000
    273 H         101.1773  136.6703  119.2901 H        45        0    0.0000
    274 H         102.1829  138.1144  119.3292 H        45        0    0.0000
    275 H         100.2290  137.2862  121.2757 H        45        0    0.0000
    276 H         101.2170  138.7427  121.3025 H        45        0    0.0000
    277 C          99.2153  139.0519  120.4855 C.3      46        0    0.0000
    278 C          98.7339  139.6990  121.7888 C.3      46        0    0.0000
    279 H          99.4330  139.8259  119.7392 H        46        0    0.0000
    280 H          98.4229  138.4213  120.0635 H        46        0    0.0000
    281 H          97.8494  140.3190  121.5966 H        46        0    0.0000
    282 H          98.4266  138.9244  122.5023 H        46        0    0.0000
    283 C          99.8398  140.5888  122.4541 C.3      47        0    0.0000
    284 C          99.3355  142.0007  122.7726 C.3      47        0    0.0000
    285 H         100.1848  140.0967  123.3719 H        47        0    0.0000
    286 H         100.7042  140.6411  121.7806 H        47        0    0.0000
    287 H          98.9905  142.4928  121.8549 H        47        0    0.0000
    288 H          98.4711  141.9484  123.4462 H        47        0    0.0000
    289 H         100.1045  142.6194  123.2353 H        47        0    0.0000
    290 H         109.2798  157.1087  121.7450 H         0        0    0.0000
@<TRIPOS>BOND
     1     1     2      1
     2     1     3      1
     3     1     4      1
     4     1   290      H
     5     2     5      1
     6     2     6      1
     7     2     7      1
     8     7     8      1
     9     7     9      1
    10     7    10      1
    11     8    11      1
    12     8    12      1
    13     8    13      1
    14    13    14      1
    15    13    15      1
    16    13    16      1
    17    14    17      1
    18    14    18      1
    19    14    19      1
    20    19    20      1
    21    19    21      1
    22    19    22      1
    23    20    23      1
    24    20    24      1
    25    20    25      1
    26    25    26      1
    27    25    27      1
    28    25    28      1
    29    26    29      1
    30    26    30      1
    31    26    31      1
    32    31    32      1
    33    31    33      1
    34    31    34      1
    35    32    35      1
    36    32    36      1
    37    32    37      1
    38    37    38      1
    39    37    39      1
    40    37    40      1
    41    38    41      1
    42    38    42      1
    43    38    43      1
    44    43    44      1
    45    43    45      1
    46    43    46      1
    47    44    47      1
    48    44    48      1
    49    44    49      1
    50    49    50      1
    51    49    51      1
    52    49    52      1
    53    50    53      1
    54    50    54      1
    55    50    55      1
    56    55    56      1
    57    55    57      1
    58    55    58      1
    59    56    59      1
    60    56    60      1
    61    56    61      1
    62    61    62      1
    63    61    63      1
    64    61    64      1
    65    62    65      1
    66    62    66      1
    67    62    67      1
    68    67    68      1
    69    67    69      1
    70    67    70      1
    71    68    71      1
    72    68    72      1
    73    68    73      1
    74    73    74      1
    75    73    75      1
    76    73    76      1
    77    74    77      1
    78    74    78      1
    79    74    79      1
    80    79    80      1
    81    79    81      1
    82    79    82      1
    83    80    83      1
    84    80    84      1
    85    80    85      1
    86    85    86      1
    87    85    87      1
    88    85    88      1
    89    86    89      1
    90    86    90      1
    91    86    91      1
    92    91    92      1
    93    91    93      1
    94    91    94      1
    95    92    95      1
    96    92    96      1
    97    92    97      1
    98    97    98      1
    99    97    99      1
   100    97   100      1
   101    98   101      1
   102    98   102      1
   103    98   103      1
   104   103   104      1
   105   103   105      1
   106   103   106      1
   107   104   107      1
   108   104   108      1
   109   104   109      1
   110   109   110      1
   111   109   111      1
   112   109   112      1
   113   110   113      1
   114   110   114      1
   115   110   115      1
   116   115   116      1
   117   115   117      1
   118   115   118      1
   119   116   119      1
   120   116   120      1
   121   116   121      1
   122   121   122      1
   123   121   123      1
   124   121   124      1
   125   122   125      1
   126   122   126      1
   127   122   127      1
   128   127   128      1
   129   127   129      1
   130   127   130      1
   131   128   131      1
   132   128   132      1
   133   128   133      1
   134   133   134      1
   135   133   135      1
   136   133   136      1
   137   134   137      1
   138   134   138      1
   139   134   139      1
   140   139   140      1
   141   139   141      1
   142   139   142      1
   143   140   143      1
   144   140   144      1
   145   140   145      1
   146   145   146      1
   147   145   147      1
   148   145   148      1
   149   146   149      1
   150   146   150      1
   151   146   151      1
   152   151   152      1
   153   151   153      1
   154   151   154      1
   155   152   155      1
   156   152   156      1
   157   152   157      1
   158   157   158      1
   159   157   159      1
   160   157   160      1
   161   158   161      1
   162   158   162      1
   163   158   163      1
   164   163   164      1
   165   163   165      1
   166   163   166      1
   167   164   167      1
   168   164   168      1
   169   164   169      1
   170   169   170      1
   171   169   171      1
   172   169   172      1
   173   170   173      1
   174   170   174      1
   175   170   175      1
   176   175   176      1
   177   175   177      1
   178   175   178      1
   179   176   179      1
   180   176   180      1
   181   176   181      1
   182   181   182      1
   183   181   183      1
   184   181   184      1
   185   182   185      1
   186   182   186      1
   187   182   187      1
   188   187   188      1
   189   187   189      1
   190   187   190      1
   191   188   191      1
   192   188   192      1
   193   188   193      1
   194   193   194      1
   195   193   195      1
   196   193   196      1
   197   194   197      1
   198   194   198      1
   199   194   199      1
   200   199   200      1
   201   199   201      1
   202   199   202      1
   203   200   203      1
   204   200   204      1
   205   200   205      1
   206   205   206      1
   207   205   207      1
   208   205   208      1
   209   206   209      1
   210   206   210      1
   211   206   211      1
   212   211   212      1
   213   211   213      1
   214   211   214      1
   215   212   215      1
   216   212   216      1
   217   212   217      1
   218   217   218      1
   219   217   219      1
   220   217   220      1
   221   218   221      1
   222   218   222      1
   223   218   223      1
   224   223   224      1
   225   223   225      1
   226   223   226      1
   227   224   227      1
   228   224   228      1
   229   224   229      1
   230   229   230      1
   231   229   231      1
   232   229   232      1
   233   230   233      1
   234   230   234      1
   235   230   235      1
   236   235   236      1
   237   235   237      1
   238   235   238      1
   239   236   239      1
   240   236   240      1
   241   236   241      1
   242   241   242      1
   243   241   243      1
   244   241   244      1
   245   242   245      1
   246   242   246      1
   247   242   247      1
   248   247   248      1
   249   247   249      1
   250   247   250      1
   251   248   251      1
   252   248   252      1
   253   248   253      1
   254   253   254      1
   255   253   255      1
   256   253   256      1
   257   254   257      1
   258   254   258      1
   259   254   259      1
   260   259   260      1
   261   259   261      1
   262   259   262      1
   263   260   263      1
   264   260   264      1
   265   260   265      1
   266   265   266      1
   267   265   267      1
   268   265   268      1
   269   266   269      1
   270   266   270      1
   271   266   271      1
   272   271   272      1
   273   271   273      1
   274   271   274      1
   275   272   275      1
   276   272   276      1
   277   272   277      1
   278   277   278      1
   279   277   279      1
   280   277   280      1
   281   278   281      1
   282   278   282      1
   283   278   283      1
   284   283   284      1
   285   283   285      1
   286   283   286      1
   287   284   287      1
   288   284   288      1
   289   284   289      H
