###
### Created by PolyChef-cpp17 on Thu Feb 27 19:40:29 2025
###

@<TRIPOS>MOLECULE
NO_INFO
1514 1513 1 0 0
SMALL
USER_CHARGES


@<TRIPOS>ATOM
      1 C          19.2798    1.2287  -39.3449 C.3       0        0    0.0000
      2 C          17.8706    1.0682  -38.7641 C.3       0        0    0.0000
      3 H          19.9271    0.4166  -38.9913 H         0        0    0.0000
      4 H          19.7280    2.1655  -38.9913 H         0        0    0.0000
      5 H          17.3721    2.0440  -38.7113 H         0        0    0.0000
      6 H          17.2611    0.4385  -39.4241 H         0        0    0.0000
      7 C          17.8873    0.4312  -37.3318 C.3       1        0    0.0000
      8 C          19.1652    0.7744  -36.5584 C.3       1        0    0.0000
      9 H          17.0072    0.7817  -36.7786 H         1        0    0.0000
     10 H          17.7864   -0.6570  -37.4276 H         1        0    0.0000
     11 H          20.0454    0.5985  -37.1891 H         1        0    0.0000
     12 H          19.1723    1.8400  -36.2977 H         1        0    0.0000
     13 C          19.3087   -0.0682  -35.2443 C.3       2        0    0.0000
     14 C          20.2046    0.6195  -34.2082 C.3       2        0    0.0000
     15 H          18.3102   -0.2397  -34.8234 H         2        0    0.0000
     16 H          19.7168   -1.0541  -35.4992 H         2        0    0.0000
     17 H          21.2595    0.5006  -34.4850 H         2        0    0.0000
     18 H          20.0027    1.6977  -34.1928 H         2        0    0.0000
     19 C          19.9930    0.0451  -32.7650 C.3       3        0    0.0000
     20 C          20.6147    0.9396  -31.6869 C.3       3        0    0.0000
     21 H          18.9170   -0.0694  -32.5843 H         3        0    0.0000
     22 H          20.4292   -0.9603  -32.7171 H         3        0    0.0000
     23 H          21.7037    0.9795  -31.8132 H         3        0    0.0000
     24 H          20.2474    1.9679  -31.7935 H         3        0    0.0000
     25 C          20.2921    0.4355  -30.2380 C.3       4        0    0.0000
     26 C          20.8870    1.3477  -29.1597 C.3       4        0    0.0000
     27 H          19.2032    0.3735  -30.1195 H         4        0    0.0000
     28 H          20.6800   -0.5843  -30.1239 H         4        0    0.0000
     29 H          21.9765    1.4053  -29.2748 H         4        0    0.0000
     30 H          20.5035    2.3688  -29.2772 H         4        0    0.0000
     31 C          20.5578    0.8479  -27.7108 C.3       5        0    0.0000
     32 C          21.1496    1.7622  -26.6324 C.3       5        0    0.0000
     33 H          19.4683    0.7877  -27.5965 H         5        0    0.0000
     34 H          20.9438   -0.1721  -27.5924 H         5        0    0.0000
     35 H          22.2389    1.8233  -26.7473 H         5        0    0.0000
     36 H          20.7627    2.7821  -26.7502 H         5        0    0.0000
     37 C          20.8215    1.2616  -25.1836 C.3       6        0    0.0000
     38 C          21.4244    2.1687  -24.1052 C.3       6        0    0.0000
     39 H          19.7321    1.2098  -25.0655 H         6        0    0.0000
     40 H          21.1999    0.2383  -25.0689 H         6        0    0.0000
     41 H          22.5137    2.2219  -24.2244 H         6        0    0.0000
     42 H          21.0447    3.1916  -24.2187 H         6        0    0.0000
     43 C          21.0986    1.6666  -22.6563 C.3       7        0    0.0000
     44 C          21.0669    2.8118  -21.6382 C.3       7        0    0.0000
     45 H          20.1313    1.1491  -22.6706 H         7        0    0.0000
     46 H          21.8495    0.9228  -22.3626 H         7        0    0.0000
     47 H          22.0626    3.2638  -21.5494 H         7        0    0.0000
     48 H          20.3910    3.6038  -21.9838 H         7        0    0.0000
     49 C          20.6010    2.3331  -20.2200 C.3       8        0    0.0000
     50 C          21.5825    2.7439  -19.1168 C.3       8        0    0.0000
     51 H          19.6077    2.7509  -20.0144 H         8        0    0.0000
     52 H          20.4870    1.2421  -20.2348 H         8        0    0.0000
     53 H          22.6134    2.6746  -19.4856 H         8        0    0.0000
     54 H          21.4176    3.7920  -18.8378 H         8        0    0.0000
     55 C          21.4433    1.8518  -17.8353 C.3       9        0    0.0000
     56 C          21.1408    2.6797  -16.5814 C.3       9        0    0.0000
     57 H          20.6468    1.1160  -18.0015 H         9        0    0.0000
     58 H          22.3721    1.2847  -17.6966 H         9        0    0.0000
     59 H          22.0528    3.1788  -16.2312 H         9        0    0.0000
     60 H          20.4194    3.4715  -16.8184 H         9        0    0.0000
     61 C          20.5648    1.8037  -15.4159 C.3      10        0    0.0000
     62 C          20.9980    2.3139  -14.0371 C.3      10        0    0.0000
     63 H          19.4701    1.7959  -15.4872 H        10        0    0.0000
     64 H          20.8969    0.7674  -15.5550 H        10        0    0.0000
     65 H          22.0835    2.4714  -14.0183 H        10        0    0.0000
     66 H          20.5349    3.2874  -13.8337 H        10        0    0.0000
     67 C          20.6115    1.3205  -12.8877 C.3      11        0    0.0000
     68 C          20.8658    1.9135  -11.4975 C.3      11        0    0.0000
     69 H          19.5534    1.0511  -12.9940 H        11        0    0.0000
     70 H          21.1864    0.3944  -13.0126 H        11        0    0.0000
     71 H          21.9314    2.1444  -11.3762 H        11        0    0.0000
     72 H          20.3237    2.8609  -11.3877 H        11        0    0.0000
     73 C          20.4251    0.9430  -10.3479 C.3      12        0    0.0000
     74 C          20.6884    1.5320   -8.9577 C.3      12        0    0.0000
     75 H          19.3578    0.7178  -10.4651 H        12        0    0.0000
     76 H          20.9619   -0.0069  -10.4619 H        12        0    0.0000
     77 H          21.7553    1.7594   -8.8414 H        12        0    0.0000
     78 H          20.1497    2.4807   -8.8429 H        12        0    0.0000
     79 C          20.2508    0.5601   -7.8081 C.3      13        0    0.0000
     80 C          20.5104    1.1507   -6.4179 C.3      13        0    0.0000
     81 H          19.1846    0.3303   -7.9261 H        13        0    0.0000
     82 H          20.7917   -0.3876   -7.9212 H        13        0    0.0000
     83 H          21.5773    1.3762   -6.2982 H        13        0    0.0000
     84 H          19.9732    2.1008   -6.3065 H        13        0    0.0000
     85 C          20.0666    0.1816   -5.2684 C.3      14        0    0.0000
     86 C          20.2770    0.7937   -3.8791 C.3      14        0    0.0000
     87 H          19.0094   -0.0747   -5.4103 H        14        0    0.0000
     88 H          20.6323   -0.7542   -5.3568 H        14        0    0.0000
     89 H          21.3261    1.0890   -3.7531 H        14        0    0.0000
     90 H          19.6780    1.7069   -3.7757 H        14        0    0.0000
     91 C          19.8896   -0.1978   -2.7282 C.3      15        0    0.0000
     92 C          20.2413    0.3548   -1.3426 C.3      15        0    0.0000
     93 H          18.8142   -0.4062   -2.7882 H        15        0    0.0000
     94 H          20.4051   -1.1517   -2.8948 H        15        0    0.0000
     95 H          20.3179    1.4484   -1.3821 H        15        0    0.0000
     96 H          19.4408    0.1206   -0.6299 H        15        0    0.0000
     97 C          21.5905   -0.2269   -0.7960 C.3      16        0    0.0000
     98 C          22.3268    0.7665    0.1096 C.3      16        0    0.0000
     99 H          21.3795   -1.1523   -0.2459 H        16        0    0.0000
    100 H          22.2264   -0.5037   -1.6460 H        16        0    0.0000
    101 H          21.6092    1.4507    0.5791 H        16        0    0.0000
    102 H          22.8306    0.2311    0.9239 H        16        0    0.0000
    103 C          23.3902    1.6099   -0.6747 C.3      17        0    0.0000
    104 C          24.1978    2.5294    0.2481 C.3      17        0    0.0000
    105 H          24.0629    0.9250   -1.2058 H        17        0    0.0000
    106 H          22.8759    2.2034   -1.4407 H        17        0    0.0000
    107 H          23.5209    3.1692    0.8277 H        17        0    0.0000
    108 H          24.7640    1.9315    0.9730 H        17        0    0.0000
    109 C          25.1968    3.4395   -0.5463 C.3      18        0    0.0000
    110 C          25.9624    4.3999    0.3705 C.3      18        0    0.0000
    111 H          25.9008    2.7992   -1.0923 H        18        0    0.0000
    112 H          24.6362    4.0058   -1.3003 H        18        0    0.0000
    113 H          25.4249    4.5231    1.3190 H        18        0    0.0000
    114 H          26.9455    3.9806    0.6177 H        18        0    0.0000
    115 C          26.1644    5.8106   -0.2828 C.3      19        0    0.0000
    116 C          26.9260    6.7724    0.6359 C.3      19        0    0.0000
    117 H          26.7047    5.6877   -1.2296 H        19        0    0.0000
    118 H          25.1814    6.2284   -0.5329 H        19        0    0.0000
    119 H          26.5194    6.7218    1.6535 H        19        0    0.0000
    120 H          27.9796    6.4740    0.7024 H        19        0    0.0000
    121 C          26.8516    8.2561    0.1352 C.3      20        0    0.0000
    122 C          27.6427    9.2127    1.0342 C.3      20        0    0.0000
    123 H          27.2342    8.3023   -0.8919 H        20        0    0.0000
    124 H          25.7992    8.5629    0.0935 H        20        0    0.0000
    125 H          27.0984    9.3851    1.9710 H        20        0    0.0000
    126 H          28.6053    8.7629    1.3072 H        20        0    0.0000
    127 C          27.9086   10.5943    0.3428 C.3      21        0    0.0000
    128 C          28.6327   11.5775    1.2690 C.3      21        0    0.0000
    129 H          28.5010   10.4271   -0.5653 H        21        0    0.0000
    130 H          26.9498   11.0184    0.0197 H        21        0    0.0000
    131 H          29.6026   11.1641    1.5722 H        21        0    0.0000
    132 H          28.8420   12.5128    0.7351 H        21        0    0.0000
    133 C          27.7991   11.9057    2.5554 C.3      22        0    0.0000
    134 C          28.5000   12.9282    3.4567 C.3      22        0    0.0000
    135 H          26.8149   12.2839    2.2521 H        22        0    0.0000
    136 H          27.6221   10.9753    3.1090 H        22        0    0.0000
    137 H          27.8889   13.8353    3.5426 H        22        0    0.0000
    138 H          28.6082   12.5240    4.4708 H        22        0    0.0000
    139 C          29.9175   13.3233    2.9163 C.3      23        0    0.0000
    140 C          30.6082   14.3643    3.8041 C.3      23        0    0.0000
    141 H          30.5345   12.4188    2.8475 H        23        0    0.0000
    142 H          29.8114   13.7106    1.8953 H        23        0    0.0000
    143 H          31.5785   13.9830    4.1457 H        23        0    0.0000
    144 H          30.8130   15.2745    3.2269 H        23        0    0.0000
    145 C          29.7450   14.7437    5.0565 C.3      24        0    0.0000
    146 C          30.5776   15.4154    6.1540 C.3      24        0    0.0000
    147 H          28.9341   15.4105    4.7382 H        24        0    0.0000
    148 H          29.2705   13.8350    5.4473 H        24        0    0.0000
    149 H          31.5934   15.0012    6.1621 H        24        0    0.0000
    150 H          30.6765   16.4883    5.9475 H        24        0    0.0000
    151 C          29.9452   15.2308    7.5764 C.3      25        0    0.0000
    152 C          30.7145   15.9971    8.6581 C.3      25        0    0.0000
    153 H          28.9019   15.5686    7.5461 H        25        0    0.0000
    154 H          29.9229   14.1607    7.8173 H        25        0    0.0000
    155 H          30.0930   16.8072    9.0592 H        25        0    0.0000
    156 H          30.9451   15.3311    9.4988 H        25        0    0.0000
    157 C          32.0524   16.6079    8.1156 C.3      26        0    0.0000
    158 C          32.6636   17.6232    9.0875 C.3      26        0    0.0000
    159 H          32.7624   15.7930    7.9272 H        26        0    0.0000
    160 H          31.8563   17.0849    7.1473 H        26        0    0.0000
    161 H          31.8686   18.1575    9.6224 H        26        0    0.0000
    162 H          33.2608   17.1041    9.8474 H        26        0    0.0000
    163 C          33.5738   18.6705    8.3580 C.3      27        0    0.0000
    164 C          34.2150   19.6628    9.3343 C.3      27        0    0.0000
    165 H          34.3523   18.1349    7.8006 H        27        0    0.0000
    166 H          32.9697   19.2087    7.6171 H        27        0    0.0000
    167 H          33.4408   20.1413    9.9468 H        27        0    0.0000
    168 H          34.8811   19.1326   10.0262 H        27        0    0.0000
    169 C          35.0355   20.7762    8.5965 C.3      28        0    0.0000
    170 C          35.6287   21.8014    9.5691 C.3      28        0    0.0000
    171 H          35.8363   20.3001    8.0172 H        28        0    0.0000
    172 H          34.3800   21.2784    7.8741 H        28        0    0.0000
    173 H          34.9294   21.9858   10.3941 H        28        0    0.0000
    174 H          36.5482   21.4059   10.0180 H        28        0    0.0000
    175 C          35.9546   23.1655    8.8687 C.3      29        0    0.0000
    176 C          36.5358   24.1950    9.8441 C.3      29        0    0.0000
    177 H          36.6612   22.9825    8.0497 H        29        0    0.0000
    178 H          35.0371   23.5565    8.4117 H        29        0    0.0000
    179 H          36.1305   24.0306   10.8502 H        29        0    0.0000
    180 H          37.6233   24.0707    9.9184 H        29        0    0.0000
    181 C          36.2242   25.6682    9.4083 C.3      30        0    0.0000
    182 C          36.8561   26.6987   10.3507 C.3      30        0    0.0000
    183 H          36.5907   25.8194    8.3854 H        30        0    0.0000
    184 H          35.1362   25.8050    9.3766 H        30        0    0.0000
    185 H          36.1181   27.0355   11.0891 H        30        0    0.0000
    186 H          37.6780   26.2393   10.9137 H        30        0    0.0000
    187 C          37.4073   27.9482    9.5810 C.3      31        0    0.0000
    188 C          38.0378   28.9793   10.5235 C.3      31        0    0.0000
    189 H          38.1462   27.6115    8.8433 H        31        0    0.0000
    190 H          36.5856   28.4069    9.0171 H        31        0    0.0000
    191 H          37.7385   29.9923   10.2272 H        31        0    0.0000
    192 H          37.6702   28.8286   11.5460 H        31        0    0.0000
    193 C          39.6033   28.8972   10.5321 C.3      32        0    0.0000
    194 C          40.2398   30.0296   11.3455 C.3      32        0    0.0000
    195 H          39.9041   27.9249   10.9416 H        32        0    0.0000
    196 H          39.9648   28.9285    9.4968 H        32        0    0.0000
    197 H          39.7040   30.9697   11.1648 H        32        0    0.0000
    198 H          40.1515   29.8178   12.4183 H        32        0    0.0000
    199 C          41.7537   30.2352   10.9941 C.3      33        0    0.0000
    200 C          42.4030   31.3337   11.8429 C.3      33        0    0.0000
    201 H          42.2826   29.2852   11.1396 H        33        0    0.0000
    202 H          41.8388   30.4832    9.9288 H        33        0    0.0000
    203 H          41.8977   32.2918   11.6688 H        33        0    0.0000
    204 H          42.2849   31.1044   12.9092 H        33        0    0.0000
    205 C          43.9295   31.5031   11.5287 C.3      34        0    0.0000
    206 C          44.5418   32.7064   12.2540 C.3      34        0    0.0000
    207 H          44.4539   30.5835   11.8166 H        34        0    0.0000
    208 H          44.0573   31.6124   10.4446 H        34        0    0.0000
    209 H          44.5409   32.5330   13.3373 H        34        0    0.0000
    210 H          45.5901   32.8317   11.9559 H        34        0    0.0000
    211 C          43.7688   34.0369   11.9546 C.3      35        0    0.0000
    212 C          44.2821   35.2092   12.7980 C.3      35        0    0.0000
    213 H          43.8668   34.2702   10.8871 H        35        0    0.0000
    214 H          42.7005   33.8758   12.1451 H        35        0    0.0000
    215 H          44.4478   36.0868   12.1608 H        35        0    0.0000
    216 H          43.5277   35.4971   13.5406 H        35        0    0.0000
    217 C          45.6183   34.8656   13.5422 C.3      36        0    0.0000
    218 C          46.0654   35.9903   14.4825 C.3      36        0    0.0000
    219 H          45.4792   33.9357   14.1074 H        36        0    0.0000
    220 H          46.3977   34.6670   12.7960 H        36        0    0.0000
    221 H          45.5879   36.9346   14.1930 H        36        0    0.0000
    222 H          45.7408   35.7745   15.5080 H        36        0    0.0000
    223 C          47.6205   36.1875   14.4756 C.3      37        0    0.0000
    224 C          48.0938   37.1113   15.6032 C.3      37        0    0.0000
    225 H          48.1018   35.2058   14.5666 H        37        0    0.0000
    226 H          47.9208   36.5966   13.5030 H        37        0    0.0000
    227 H          47.8420   38.1527   15.3671 H        37        0    0.0000
    228 H          47.5715   36.8647   16.5359 H        37        0    0.0000
    229 C          49.6390   37.0080   15.8469 C.3      38        0    0.0000
    230 C          50.1207   37.9708   16.9377 C.3      38        0    0.0000
    231 H          49.8853   35.9748   16.1214 H        38        0    0.0000
    232 H          50.1603   37.2163   14.9043 H        38        0    0.0000
    233 H          49.7114   38.9734   16.7621 H        38        0    0.0000
    234 H          49.7487   37.6458   17.9173 H        38        0    0.0000
    235 C          51.6842   38.0667   16.9974 C.3      39        0    0.0000
    236 C          52.1624   39.1876   17.9268 C.3      39        0    0.0000
    237 H          52.0851   37.1024   17.3337 H        39        0    0.0000
    238 H          52.0674   38.2304   15.9825 H        39        0    0.0000
    239 H          51.6322   40.1198   17.6957 H        39        0    0.0000
    240 H          51.9242   38.9397   18.9686 H        39        0    0.0000
    241 C          53.7049   39.4407   17.8077 C.3      40        0    0.0000
    242 C          54.1507   40.6858   18.5823 C.3      40        0    0.0000
    243 H          54.2380   38.5563   18.1781 H        40        0    0.0000
    244 H          53.9653   39.5443   16.7470 H        40        0    0.0000
    245 H          53.5347   41.5474   18.2963 H        40        0    0.0000
    246 H          53.9994   40.5337   19.6582 H        40        0    0.0000
    247 C          55.6576   41.0355   18.3284 C.3      41        0    0.0000
    248 C          56.0255   42.4302   18.8466 C.3      41        0    0.0000
    249 H          56.2834   40.2766   18.8141 H        41        0    0.0000
    250 H          55.8596   40.9687   17.2522 H        41        0    0.0000
    251 H          55.3160   43.1735   18.4625 H        41        0    0.0000
    252 H          55.9487   42.4573   19.9407 H        41        0    0.0000
    253 C          57.4763   42.8547   18.4313 C.3      42        0    0.0000
    254 C          57.8904   44.1929   19.0531 C.3      42        0    0.0000
    255 H          58.1760   42.0662   18.7351 H        42        0    0.0000
    256 H          57.5271   42.9165   17.3372 H        42        0    0.0000
    257 H          57.2555   44.9998   18.6666 H        42        0    0.0000
    258 H          57.7391   44.1658   20.1394 H        42        0    0.0000
    259 C          59.3896   44.5454   18.7604 C.3      43        0    0.0000
    260 C          60.0567   45.2675   19.9362 C.3      43        0    0.0000
    261 H          59.9321   43.6200   18.5306 H        43        0    0.0000
    262 H          59.4366   45.1701   17.8598 H        43        0    0.0000
    263 H          59.8087   46.3359   19.9112 H        43        0    0.0000
    264 H          59.6705   44.8766   20.8857 H        43        0    0.0000
    265 C          61.6164   45.1104   19.9222 C.3      44        0    0.0000
    266 C          62.2502   45.4861   21.2661 C.3      44        0    0.0000
    267 H          61.8650   44.0730   19.6660 H        44        0    0.0000
    268 H          62.0280   45.7395   19.1232 H        44        0    0.0000
    269 H          62.0765   46.5480   21.4801 H        44        0    0.0000
    270 H          61.7759   44.9196   22.0771 H        44        0    0.0000
    271 C          63.7932   45.2110   21.2929 C.3      45        0    0.0000
    272 C          64.4552   45.7384   22.5706 C.3      45        0    0.0000
    273 H          63.9615   44.1309   21.2003 H        45        0    0.0000
    274 H          64.2510   45.6778   20.4119 H        45        0    0.0000
    275 H          63.8385   46.5296   23.0148 H        45        0    0.0000
    276 H          64.5248   44.9370   23.3166 H        45        0    0.0000
    277 C          65.8916   46.3070   22.3044 C.3      46        0    0.0000
    278 C          66.5032   46.9489   23.5546 C.3      46        0    0.0000
    279 H          66.5338   45.4923   21.9474 H        46        0    0.0000
    280 H          65.8358   47.0429   21.4927 H        46        0    0.0000
    281 H          65.7433   47.5346   24.0867 H        46        0    0.0000
    282 H          66.8441   46.1707   24.2486 H        46        0    0.0000
    283 C          67.7130   47.8846   23.2107 C.3      47        0    0.0000
    284 C          68.3120   48.5420   24.4590 C.3      47        0    0.0000
    285 H          68.4791   47.2955   22.6915 H        47        0    0.0000
    286 H          67.3756   48.6541   22.5055 H        47        0    0.0000
    287 H          67.5453   49.1293   24.9794 H        47        0    0.0000
    288 H          68.6514   47.7724   25.1633 H        47        0    0.0000
    289 C          69.5199   49.4800   24.1148 C.3      48        0    0.0000
    290 C          70.1074   50.1515   25.3610 C.3      48        0    0.0000
    291 H          70.2922   48.8898   23.6061 H        48        0    0.0000
    292 H          69.1838   50.2416   23.4002 H        48        0    0.0000
    293 H          69.3339   50.7377   25.8724 H        48        0    0.0000
    294 H          70.4481   49.3899   26.0734 H        48        0    0.0000
    295 C          71.3109   51.0950   25.0159 C.3      49        0    0.0000
    296 C          71.9791   51.6667   26.2712 C.3      49        0    0.0000
    297 H          72.0427   50.5322   24.4233 H        49        0    0.0000
    298 H          70.9491   51.9106   24.3777 H        49        0    0.0000
    299 H          71.2554   52.2566   26.8471 H        49        0    0.0000
    300 H          72.3120   50.8509   26.9248 H        49        0    0.0000
    301 C          73.2109   52.5735   25.9278 C.3      50        0    0.0000
    302 C          74.1718   52.7211   27.1126 C.3      50        0    0.0000
    303 H          73.7380   52.1431   25.0673 H        50        0    0.0000
    304 H          72.8472   53.5596   25.6133 H        50        0    0.0000
    305 H          73.6644   53.2181   27.9487 H        50        0    0.0000
    306 H          74.4786   51.7316   27.4736 H        50        0    0.0000
    307 C          75.4537   53.5426   26.7392 C.3      51        0    0.0000
    308 C          75.8824   54.4928   27.8627 C.3      51        0    0.0000
    309 H          76.2666   52.8434   26.5072 H        51        0    0.0000
    310 H          75.2550   54.1103   25.8217 H        51        0    0.0000
    311 H          75.0234   55.0836   28.2040 H        51        0    0.0000
    312 H          76.2330   53.9175   28.7286 H        51        0    0.0000
    313 C          77.0212   55.4710   27.4113 C.3      52        0    0.0000
    314 C          78.2081   55.4675   28.3810 C.3      52        0    0.0000
    315 H          77.3555   55.1847   26.4064 H        52        0    0.0000
    316 H          76.6058   56.4830   27.3287 H        52        0    0.0000
    317 H          77.9437   56.0034   29.3010 H        52        0    0.0000
    318 H          78.4512   54.4388   28.6743 H        52        0    0.0000
    319 C          79.4852   56.1308   27.7592 C.3      53        0    0.0000
    320 C          80.3531   56.8231   28.8158 C.3      53        0    0.0000
    321 H          80.0676   55.3591   27.2407 H        53        0    0.0000
    322 H          79.1720   56.8546   26.9966 H        53        0    0.0000
    323 H          79.7314   57.4666   29.4505 H        53        0    0.0000
    324 H          80.8095   56.0755   29.4763 H        53        0    0.0000
    325 C          81.4896   57.6920   28.1747 C.3      54        0    0.0000
    326 C          81.9968   58.7797   29.1279 C.3      54        0    0.0000
    327 H          82.3163   57.0328   27.8822 H        54        0    0.0000
    328 H          81.1086   58.1478   27.2525 H        54        0    0.0000
    329 H          81.1494   59.3272   29.5589 H        54        0    0.0000
    330 H          82.5363   58.3230   29.9669 H        54        0    0.0000
    331 C          82.9468   59.8009   28.4123 C.3      55        0    0.0000
    332 C          82.7449   61.2340   28.9169 C.3      55        0    0.0000
    333 H          83.9863   59.4887   28.5722 H        55        0    0.0000
    334 H          82.7665   59.7538   27.3312 H        55        0    0.0000
    335 H          81.6739   61.4527   29.0099 H        55        0    0.0000
    336 H          83.1772   61.3443   29.9192 H        55        0    0.0000
    337 C          83.3968   62.2961   27.9658 C.3      56        0    0.0000
    338 C          83.0063   63.7297   28.3417 C.3      56        0    0.0000
    339 H          84.4872   62.1814   28.0023 H        56        0    0.0000
    340 H          83.0917   62.0813   26.9341 H        56        0    0.0000
    341 H          81.9140   63.8238   28.3819 H        56        0    0.0000
    342 H          83.3804   63.9708   29.3445 H        56        0    0.0000
    343 C          83.5672   64.7839   27.3261 C.3      57        0    0.0000
    344 C          83.0697   66.2020   27.6269 C.3      57        0    0.0000
    345 H          84.6635   64.7556   27.3564 H        57        0    0.0000
    346 H          83.2724   64.4891   26.3114 H        57        0    0.0000
    347 H          81.9758   66.2073   27.7092 H        57        0    0.0000
    348 H          83.4601   66.5403   28.5947 H        57        0    0.0000
    349 C          83.4983   67.2287   26.5224 C.3      58        0    0.0000
    350 C          82.9201   68.6259   26.7724 C.3      58        0    0.0000
    351 H          84.5939   67.2754   26.4891 H        58        0    0.0000
    352 H          83.1691   66.8547   25.5451 H        58        0    0.0000
    353 H          83.3841   69.0716   27.6610 H        58        0    0.0000
    354 H          83.1554   69.2869   25.9291 H        58        0    0.0000
    355 C          81.3657   68.5982   26.9742 C.3      59        0    0.0000
    356 C          80.8153   69.9531   27.4330 C.3      59        0    0.0000
    357 H          80.8919   68.2997   26.0308 H        59        0    0.0000
    358 H          81.1184   67.8230   27.7101 H        59        0    0.0000
    359 H          81.5272   70.7509   27.1876 H        59        0    0.0000
    360 H          79.8868   70.1833   26.8960 H        59        0    0.0000
    361 C          80.5295   69.9872   28.9740 C.3      60        0    0.0000
    362 C          79.5606   71.1102   29.3603 C.3      60        0    0.0000
    363 H          80.1207   69.0161   29.2794 H        60        0    0.0000
    364 H          81.4802   70.1106   29.5073 H        60        0    0.0000
    365 H          80.0991   72.0632   29.4327 H        60        0    0.0000
    366 H          78.8005   71.2364   28.5794 H        60        0    0.0000
    367 C          78.8415   70.8311   30.7250 C.3      61        0    0.0000
    368 C          77.5879   71.6936   30.9080 C.3      61        0    0.0000
    369 H          78.5769   69.7676   30.7743 H        61        0    0.0000
    370 H          79.5492   71.0179   31.5423 H        61        0    0.0000
    371 H          77.3301   71.7616   31.9722 H        61        0    0.0000
    372 H          77.7822   72.7174   30.5650 H        61        0    0.0000
    373 C          76.3552   71.1238   30.1249 C.3      62        0    0.0000
    374 C          75.1748   72.1012   30.1090 C.3      62        0    0.0000
    375 H          76.6650   70.8915   29.0984 H        62        0    0.0000
    376 H          76.0519   70.1751   30.5848 H        62        0    0.0000
    377 H          74.3484   71.6835   29.5206 H        62        0    0.0000
    378 H          74.7939   72.2476   31.1274 H        62        0    0.0000
    379 C          75.5665   73.4962   29.5107 C.3      63        0    0.0000
    380 C          74.3778   74.4626   29.4637 C.3      63        0    0.0000
    381 H          76.3762   73.9250   30.1141 H        63        0    0.0000
    382 H          75.9704   73.3474   28.5016 H        63        0    0.0000
    383 H          73.5934   74.0625   28.8093 H        63        0    0.0000
    384 H          73.9345   74.5624   30.4622 H        63        0    0.0000
    385 C          74.7886   75.8851   28.9488 C.3      64        0    0.0000
    386 C          73.6106   76.8656   28.9492 C.3      64        0    0.0000
    387 H          75.5984   76.2698   29.5810 H        64        0    0.0000
    388 H          75.1982   75.7897   27.9355 H        64        0    0.0000
    389 H          72.8057   76.4868   28.3071 H        64        0    0.0000
    390 H          73.1931   76.9516   29.9600 H        64        0    0.0000
    391 C          74.0253   78.2928   28.4506 C.3      65        0    0.0000
    392 C          72.8350   79.2567   28.3934 C.3      65        0    0.0000
    393 H          74.7992   78.6898   29.1191 H        65        0    0.0000
    394 H          74.4832   78.2013   27.4579 H        65        0    0.0000
    395 H          71.9212   78.7107   28.1283 H        65        0    0.0000
    396 H          72.6618   79.6994   29.3821 H        65        0    0.0000
    397 C          73.0539   80.4101   27.3546 C.3      66        0    0.0000
    398 C          71.7314   81.0168   26.8731 C.3      66        0    0.0000
    399 H          73.6786   81.1861   27.8142 H        66        0    0.0000
    400 H          73.6192   80.0149   26.5014 H        66        0    0.0000
    401 H          70.9972   80.2222   26.6913 H        66        0    0.0000
    402 H          71.3090   81.6640   27.6516 H        66        0    0.0000
    403 C          71.9054   81.8542   25.5593 C.3      67        0    0.0000
    404 C          70.5805   82.4493   25.0700 C.3      67        0    0.0000
    405 H          72.6320   82.6552   25.7441 H        67        0    0.0000
    406 H          72.3375   81.2097   24.7838 H        67        0    0.0000
    407 H          69.8775   81.6456   24.8179 H        67        0    0.0000
    408 H          70.1136   83.0367   25.8703 H        67        0    0.0000
    409 C          70.7696   83.3676   23.8137 C.3      68        0    0.0000
    410 C          69.8932   84.6235   23.8750 C.3      68        0    0.0000
    411 H          71.8270   83.6501   23.7382 H        68        0    0.0000
    412 H          70.5333   82.7877   22.9130 H        68        0    0.0000
    413 H          68.8520   84.3672   23.6434 H        68        0    0.0000
    414 H          69.8975   85.0359   24.8916 H        68        0    0.0000
    415 C          70.3744   85.7330   22.8775 C.3      69        0    0.0000
    416 C          69.6432   87.0629   23.0913 C.3      69        0    0.0000
    417 H          71.4554   85.8741   23.0002 H        69        0    0.0000
    418 H          70.2174   85.3781   21.8514 H        69        0    0.0000
    419 H          68.5992   86.9747   22.7662 H        69        0    0.0000
    420 H          69.6206   87.3123   24.1594 H        69        0    0.0000
    421 C          70.3174   88.2436   22.3109 C.3      70        0    0.0000
    422 C          69.7333   89.6060   22.7008 C.3      70        0    0.0000
    423 H          71.3965   88.2269   22.5075 H        70        0    0.0000
    424 H          70.1906   88.0741   21.2345 H        70        0    0.0000
    425 H          70.2580   90.4072   22.1658 H        70        0    0.0000
    426 H          68.6798   89.6636   22.3999 H        70        0    0.0000
    427 C          69.8342   89.8768   24.2415 C.3      71        0    0.0000
    428 C          69.2621   91.2446   24.6296 C.3      71        0    0.0000
    429 H          69.3013   89.0807   24.7761 H        71        0    0.0000
    430 H          70.8866   89.8096   24.5441 H        71        0    0.0000
    431 H          69.2700   91.9156   23.7617 H        71        0    0.0000
    432 H          68.2144   91.1405   24.9377 H        71        0    0.0000
    433 C          70.0671   91.9164   25.7950 C.3      72        0    0.0000
    434 C          69.5644   93.3298   26.1088 C.3      72        0    0.0000
    435 H          69.9915   91.2834   26.6878 H        72        0    0.0000
    436 H          71.1286   91.9472   25.5196 H        72        0    0.0000
    437 H          69.0065   93.7294   25.2529 H        72        0    0.0000
    438 H          68.8661   93.3016   26.9545 H        72        0    0.0000
    439 C          70.7350   94.3141   26.4528 C.3      73        0    0.0000
    440 C          70.3029   95.7822   26.3699 C.3      73        0    0.0000
    441 H          71.1035   94.0868   27.4609 H        73        0    0.0000
    442 H          71.5679   94.1276   25.7635 H        73        0    0.0000
    443 H          69.6842   95.9424   25.4782 H        73        0    0.0000
    444 H          69.6807   96.0407   27.2357 H        73        0    0.0000
    445 C          71.5272   96.7598   26.3176 C.3      74        0    0.0000
    446 C          71.1136   98.1896   25.9518 C.3      74        0    0.0000
    447 H          72.0285   96.7513   27.2934 H        74        0    0.0000
    448 H          72.2524   96.3796   25.5876 H        74        0    0.0000
    449 H          70.5125   98.1841   25.0342 H        74        0    0.0000
    450 H          70.4795   98.6114   26.7414 H        74        0    0.0000
    451 C          72.3499   99.1300   25.7403 C.3      75        0    0.0000
    452 C          71.9506  100.4946   25.1681 C.3      75        0    0.0000
    453 H          72.8633   99.2606   26.7010 H        75        0    0.0000
    454 H          73.0609   98.6336   25.0682 H        75        0    0.0000
    455 H          71.3754  100.3610   24.2435 H        75        0    0.0000
    456 H          71.2957  101.0211   25.8733 H        75        0    0.0000
    457 C          73.1949  101.3980   24.8630 C.3      76        0    0.0000
    458 C          72.7956  102.7622   24.2899 C.3      76        0    0.0000
    459 H          73.7698  101.5321   25.7876 H        76        0    0.0000
    460 H          73.8501  100.8711   24.1582 H        76        0    0.0000
    461 H          73.6704  103.4229   24.2472 H        76        0    0.0000
    462 H          72.4372  102.6471   23.2594 H        76        0    0.0000
    463 C          71.6771  103.4590   25.1390 C.3      77        0    0.0000
    464 C          71.2021  104.7724   24.5078 C.3      77        0    0.0000
    465 H          70.8329  102.7670   25.2477 H        77        0    0.0000
    466 H          72.0639  103.6451   26.1486 H        77        0    0.0000
    467 H          71.9801  105.5397   24.6055 H        77        0    0.0000
    468 H          71.0303  104.6329   23.4333 H        77        0    0.0000
    469 C          69.8824  105.3045   25.1656 C.3      78        0    0.0000
    470 C          69.4911  106.6912   24.6432 C.3      78        0    0.0000
    471 H          69.0756  104.5873   24.9697 H        78        0    0.0000
    472 H          70.0178  105.3368   26.2538 H        78        0    0.0000
    473 H          70.3896  107.2999   24.4825 H        78        0    0.0000
    474 H          68.9941  106.5999   23.6695 H        78        0    0.0000
    475 C          68.5365  107.4497   25.6286 C.3      79        0    0.0000
    476 C          68.5566  108.9658   25.4051 C.3      79        0    0.0000
    477 H          67.5174  107.0641   25.5007 H        79        0    0.0000
    478 H          68.8343  107.2173   26.6586 H        79        0    0.0000
    479 H          68.4231  109.1908   24.3397 H        79        0    0.0000
    480 H          67.7176  109.4351   25.9337 H        79        0    0.0000
    481 C          69.8933  109.6211   25.8963 C.3      80        0    0.0000
    482 C          69.9193  111.1351   25.6593 C.3      80        0    0.0000
    483 H          70.0214  109.4053   26.9643 H        80        0    0.0000
    484 H          70.7330  109.1444   25.3756 H        80        0    0.0000
    485 H          69.9476  111.3470   24.5833 H        80        0    0.0000
    486 H          69.0003  111.5923   26.0464 H        80        0    0.0000
    487 C          71.1518  111.8222   26.3422 C.3      81        0    0.0000
    488 C          71.1244  113.3471   26.1909 C.3      81        0    0.0000
    489 H          71.1647  111.5498   27.4048 H        81        0    0.0000
    490 H          72.0714  111.4170   25.9019 H        81        0    0.0000
    491 H          71.9440  113.7969   26.7649 H        81        0    0.0000
    492 H          71.2856  113.6240   25.1417 H        81        0    0.0000
    493 C          69.7686  113.9678   26.6747 C.3      82        0    0.0000
    494 C          69.6923  115.4753   26.4090 C.3      82        0    0.0000
    495 H          68.9432  113.4541   26.1665 H        82        0    0.0000
    496 H          69.6511  113.7685   27.7471 H        82        0    0.0000
    497 H          70.6142  115.9641   26.7477 H        82        0    0.0000
    498 H          69.6136  115.6638   25.3311 H        82        0    0.0000
    499 C          68.4714  116.1446   27.1295 C.3      83        0    0.0000
    500 C          68.4228  117.6597   26.9035 C.3      83        0    0.0000
    501 H          67.5472  115.6799   26.7643 H        83        0    0.0000
    502 H          68.5311  115.9260   28.2029 H        83        0    0.0000
    503 H          69.4118  118.0271   26.6028 H        83        0    0.0000
    504 H          67.7357  117.8956   26.0814 H        83        0    0.0000
    505 C          67.9632  118.4370   28.1849 C.3      84        0    0.0000
    506 C          68.0485  119.9566   28.0043 C.3      84        0    0.0000
    507 H          66.9339  118.1440   28.4261 H        84        0    0.0000
    508 H          68.5866  118.1233   29.0314 H        84        0    0.0000
    509 H          68.9108  120.2130   27.3765 H        84        0    0.0000
    510 H          67.1572  120.3237   27.4805 H        84        0    0.0000
    511 C          68.1773  120.7112   29.3723 C.3      85        0    0.0000
    512 C          68.2007  122.2335   29.1960 C.3      85        0    0.0000
    513 H          67.3388  120.4201   30.0171 H        85        0    0.0000
    514 H          69.0928  120.3767   29.8758 H        85        0    0.0000
    515 H          69.2214  122.5712   28.9778 H        85        0    0.0000
    516 H          67.5828  122.5222   28.3367 H        85        0    0.0000
    517 C          67.6804  122.9870   30.4684 C.3      86        0    0.0000
    518 C          67.7330  124.5099   30.3036 C.3      86        0    0.0000
    519 H          66.6515  122.6662   30.6733 H        86        0    0.0000
    520 H          68.2837  122.6810   31.3320 H        86        0    0.0000
    521 H          68.7653  124.8331   30.1209 H        86        0    0.0000
    522 H          67.1479  124.8139   29.4268 H        86        0    0.0000
    523 C          67.1832  125.2631   31.5638 C.3      87        0    0.0000
    524 C          67.1980  126.7850   31.3831 C.3      87        0    0.0000
    525 H          66.1613  124.9180   31.7641 H        87        0    0.0000
    526 H          67.7873  124.9819   32.4353 H        87        0    0.0000
    527 H          68.1748  127.1892   31.6765 H        87        0    0.0000
    528 H          67.0565  127.0397   30.3254 H        87        0    0.0000
    529 C          66.0834  127.4943   32.2270 C.3      88        0    0.0000
    530 C          66.0078  128.9984   31.9421 C.3      88        0    0.0000
    531 H          65.1185  127.0209   32.0074 H        88        0    0.0000
    532 H          66.2833  127.3228   33.2920 H        88        0    0.0000
    533 H          66.5728  129.5538   32.7008 H        88        0    0.0000
    534 H          66.4751  129.2219   30.9750 H        88        0    0.0000
    535 C          64.5318  129.5262   31.9241 C.3      89        0    0.0000
    536 C          64.4100  130.8871   31.2299 C.3      89        0    0.0000
    537 H          63.8983  128.7875   31.4176 H        89        0    0.0000
    538 H          64.1691  129.5969   32.9571 H        89        0    0.0000
    539 H          65.0521  131.6231   31.7296 H        89        0    0.0000
    540 H          64.7624  130.8137   30.1936 H        89        0    0.0000
    541 C          62.9366  131.4223   31.2259 C.3      90        0    0.0000
    542 C          62.8276  132.8190   30.6043 C.3      90        0    0.0000
    543 H          62.3050  130.7148   30.6744 H        90        0    0.0000
    544 H          62.5638  131.4395   32.2575 H        90        0    0.0000
    545 H          63.5640  132.9308   29.7988 H        90        0    0.0000
    546 H          61.8388  132.9515   30.1478 H        90        0    0.0000
    547 C          63.0544  133.9575   31.6578 C.3      91        0    0.0000
    548 C          62.9604  135.3539   31.0333 C.3      91        0    0.0000
    549 H          62.3109  133.8523   32.4577 H        91        0    0.0000
    550 H          64.0385  133.8185   32.1222 H        91        0    0.0000
    551 H          63.5953  135.4101   30.1403 H        91        0    0.0000
    552 H          61.9330  135.5496   30.7022 H        91        0    0.0000
    553 C          63.3928  136.4819   32.0324 C.3      92        0    0.0000
    554 C          63.3135  137.8771   31.4030 C.3      92        0    0.0000
    555 H          62.7506  136.4328   32.9205 H        92        0    0.0000
    556 H          64.4162  136.2801   32.3721 H        92        0    0.0000
    557 H          63.8335  137.8841   30.4370 H        92        0    0.0000
    558 H          62.2678  138.1392   31.1997 H        92        0    0.0000
    559 C          63.9413  138.9804   32.3228 C.3      93        0    0.0000
    560 C          63.8750  140.3734   31.6871 C.3      93        0    0.0000
    561 H          63.4143  138.9805   33.2850 H        93        0    0.0000
    562 H          64.9839  138.7128   32.5347 H        93        0    0.0000
    563 H          62.8399  140.7367   31.6843 H        93        0    0.0000
    564 H          64.4577  141.0869   32.2829 H        93        0    0.0000
    565 C          64.4174  140.3817   30.2163 C.3      94        0    0.0000
    566 C          63.8818  141.5676   29.4064 C.3      94        0    0.0000
    567 H          65.5138  140.4095   30.2439 H        94        0    0.0000
    568 H          64.1383  139.4382   29.7312 H        94        0    0.0000
    569 H          63.7634  142.4438   30.0558 H        94        0    0.0000
    570 H          64.6024  141.8475   28.6280 H        94        0    0.0000
    571 C          62.5040  141.2506   28.7292 C.3      95        0    0.0000
    572 C          61.9919  142.4190   27.8797 C.3      95        0    0.0000
    573 H          62.6137  140.3533   28.1076 H        95        0    0.0000
    574 H          61.7741  141.0053   29.5105 H        95        0    0.0000
    575 H          61.9086  142.1125   26.8296 H        95        0    0.0000
    576 H          60.9844  142.7071   28.2046 H        95        0    0.0000
    577 C          62.9289  143.6728   27.9674 C.3      96        0    0.0000
    578 C          62.1737  144.9814   27.7102 C.3      96        0    0.0000
    579 H          63.3957  143.6966   28.9599 H        96        0    0.0000
    580 H          63.7418  143.5583   27.2396 H        96        0    0.0000
    581 H          62.2950  145.2862   26.6633 H        96        0    0.0000
    582 H          61.0989  144.8336   27.8727 H        96        0    0.0000
    583 C          62.6695  146.1452   28.6360 C.3      97        0    0.0000
    584 C          61.5130  147.0046   29.1585 C.3      97        0    0.0000
    585 H          63.2280  145.7150   29.4765 H        97        0    0.0000
    586 H          63.3765  146.7677   28.0737 H        97        0    0.0000
    587 H          61.1349  147.6531   28.3585 H        97        0    0.0000
    588 H          60.6773  146.3638   29.4661 H        97        0    0.0000
    589 C          61.9387  147.8980   30.3743 C.3      98        0    0.0000
    590 C          61.8019  149.3942   30.0717 C.3      98        0    0.0000
    591 H          61.3222  147.6317   31.2418 H        98        0    0.0000
    592 H          62.9763  147.6614   30.6407 H        98        0    0.0000
    593 H          61.7862  149.5588   28.9871 H        98        0    0.0000
    594 H          60.8482  149.7711   30.4614 H        98        0    0.0000
    595 C          62.9696  150.2353   30.6934 C.3      99        0    0.0000
    596 C          63.4635  151.3333   29.7450 C.3      99        0    0.0000
    597 H          62.6233  150.6792   31.6350 H        99        0    0.0000
    598 H          63.7952  149.5594   30.9487 H        99        0    0.0000
    599 H          63.6620  150.9114   28.7520 H        99        0    0.0000
    600 H          62.6850  152.0951   29.6138 H        99        0    0.0000
    601 C          64.7674  152.0284   30.2686 C.3     100        0    0.0000
    602 C          64.9270  153.4511   29.7215 C.3     100        0    0.0000
    603 H          64.7418  152.0478   31.3652 H       100        0    0.0000
    604 H          65.6327  151.4168   29.9844 H       100        0    0.0000
    605 H          64.8862  153.4393   28.6252 H       100        0    0.0000
    606 H          64.0949  154.0803   30.0609 H       100        0    0.0000
    607 C          66.2759  154.1122   30.1698 C.3     101        0    0.0000
    608 C          66.5803  155.3966   29.3909 C.3     101        0    0.0000
    609 H          66.2243  154.3272   31.2443 H       101        0    0.0000
    610 H          67.0878  153.3874   30.0321 H       101        0    0.0000
    611 H          66.4327  155.2291   28.3168 H       101        0    0.0000
    612 H          65.8815  156.1895   29.6851 H       101        0    0.0000
    613 C          68.0456  155.9014   29.6269 C.3     102        0    0.0000
    614 C          68.3981  157.0982   28.7367 C.3     102        0    0.0000
    615 H          68.1604  156.1720   30.6839 H       102        0    0.0000
    616 H          68.7397  155.0735   29.4365 H       102        0    0.0000
    617 H          68.3568  156.8061   27.6800 H       102        0    0.0000
    618 H          67.6593  157.8979   28.8716 H       102        0    0.0000
    619 C          69.8242  157.6701   29.0474 C.3     103        0    0.0000
    620 C          70.1627  158.8886   28.1816 C.3     103        0    0.0000
    621 H          69.8738  157.9382   30.1101 H       103        0    0.0000
    622 H          70.5656  156.8774   28.8876 H       103        0    0.0000
    623 H          70.1732  158.6057   27.1217 H       103        0    0.0000
    624 H          69.3883  159.6574   28.2949 H       103        0    0.0000
    625 C          71.5523  159.5128   28.5517 C.3     104        0    0.0000
    626 C          71.9854  160.5964   27.5581 C.3     104        0    0.0000
    627 H          71.4933  159.9322   29.5636 H       104        0    0.0000
    628 H          72.3017  158.7123   28.5856 H       104        0    0.0000
    629 H          71.9754  160.1960   26.5368 H       104        0    0.0000
    630 H          71.2728  161.4303   27.5766 H       104        0    0.0000
    631 C          73.4187  161.1496   27.8698 C.3     105        0    0.0000
    632 C          74.2912  161.2430   26.6132 C.3     105        0    0.0000
    633 H          73.3226  162.1383   28.3354 H       105        0    0.0000
    634 H          73.8960  160.4972   28.6115 H       105        0    0.0000
    635 H          73.9417  160.5276   25.8585 H       105        0    0.0000
    636 H          74.2018  162.2410   26.1665 H       105        0    0.0000
    637 C          75.8027  160.9590   26.9170 C.3     106        0    0.0000
    638 C          76.6077  162.2482   27.1143 C.3     106        0    0.0000
    639 H          75.8712  160.3317   27.8144 H       106        0    0.0000
    640 H          76.2256  160.3742   26.0907 H       106        0    0.0000
    641 H          77.1145  162.5219   26.1806 H       106        0    0.0000
    642 H          75.9343  163.0780   27.3622 H       106        0    0.0000
    643 C          77.6800  162.1112   28.2497 C.3     107        0    0.0000
    644 C          77.6868  163.3206   29.1912 C.3     107        0    0.0000
    645 H          77.4790  161.1940   28.8170 H       107        0    0.0000
    646 H          78.6682  161.9870   27.7897 H       107        0    0.0000
    647 H          78.4387  164.0488   28.8626 H       107        0    0.0000
    648 H          76.7165  163.8313   29.1546 H       107        0    0.0000
    649 C          77.9895  162.9164   30.6752 C.3     108        0    0.0000
    650 C          79.4874  162.9636   30.9961 C.3     108        0    0.0000
    651 H          77.4401  163.5903   31.3443 H       108        0    0.0000
    652 H          77.5982  161.9072   30.8538 H       108        0    0.0000
    653 H          80.0080  163.5992   30.2691 H       108        0    0.0000
    654 H          79.6469  163.4171   31.9822 H       108        0    0.0000
    655 C          80.1429  161.5396   30.9829 C.3     109        0    0.0000
    656 C          81.1475  161.3521   32.1251 C.3     109        0    0.0000
    657 H          79.3499  160.7847   31.0517 H       109        0    0.0000
    658 H          80.6395  161.3878   30.0165 H       109        0    0.0000
    659 H          82.0825  161.8773   31.8938 H       109        0    0.0000
    660 H          80.7557  161.7979   33.0477 H       109        0    0.0000
    661 C          81.4693  159.8410   32.3912 C.3     110        0    0.0000
    662 C          82.6224  159.6588   33.3843 C.3     110        0    0.0000
    663 H          80.5652  159.3484   32.7700 H       110        0    0.0000
    664 H          81.7148  159.3584   31.4371 H       110        0    0.0000
    665 H          83.3533  160.4681   33.2647 H       110        0    0.0000
    666 H          82.2466  159.7233   34.4130 H       110        0    0.0000
    667 C          83.3546  158.2852   33.1989 C.3     111        0    0.0000
    668 C          84.5896  158.1593   34.0978 C.3     111        0    0.0000
    669 H          82.6472  157.4752   33.4161 H       111        0    0.0000
    670 H          83.6432  158.1776   32.1460 H       111        0    0.0000
    671 H          85.1544  159.0998   34.0949 H       111        0    0.0000
    672 H          84.2828  157.9794   35.1356 H       111        0    0.0000
    673 C          85.5395  156.9981   33.6432 C.3     112        0    0.0000
    674 C          87.0018  157.2635   34.0178 C.3     112        0    0.0000
    675 H          85.1978  156.0618   34.1015 H       112        0    0.0000
    676 H          85.4466  156.8698   32.5576 H       112        0    0.0000
    677 H          87.2898  158.2776   33.7142 H       112        0    0.0000
    678 H          87.1263  157.2132   35.1066 H       112        0    0.0000
    679 C          87.9817  156.2385   33.3493 C.3     113        0    0.0000
    680 C          89.2603  156.0372   34.1702 C.3     113        0    0.0000
    681 H          87.4606  155.2813   33.2239 H       113        0    0.0000
    682 H          88.2332  156.5947   32.3426 H       113        0    0.0000
    683 H          89.7731  156.9970   34.3091 H       113        0    0.0000
    684 H          89.0098  155.6660   35.1717 H       113        0    0.0000
    685 C          90.2500  155.0292   33.4906 C.3     114        0    0.0000
    686 C          91.7073  155.2890   33.8878 C.3     114        0    0.0000
    687 H          89.9607  154.0080   33.7683 H       114        0    0.0000
    688 H          90.1379  155.1033   32.4018 H       114        0    0.0000
    689 H          91.9646  156.3401   33.7076 H       114        0    0.0000
    690 H          91.8419  155.1113   34.9619 H       114        0    0.0000
    691 C          92.7099  154.3806   33.0959 C.3     115        0    0.0000
    692 C          94.1584  154.5743   33.5577 C.3     115        0    0.0000
    693 H          92.4120  153.3322   33.2214 H       115        0    0.0000
    694 H          92.6227  154.6068   32.0259 H       115        0    0.0000
    695 H          94.8128  153.8497   33.0574 H       115        0    0.0000
    696 H          94.5146  155.5714   33.2705 H       115        0    0.0000
    697 C          94.3146  154.4094   35.1088 C.3     116        0    0.0000
    698 C          95.7113  154.8085   35.5976 C.3     116        0    0.0000
    699 H          93.5524  155.0206   35.6079 H       116        0    0.0000
    700 H          94.1063  153.3660   35.3762 H       116        0    0.0000
    701 H          95.7651  154.7261   36.6903 H       116        0    0.0000
    702 H          96.4627  154.1196   35.1924 H       116        0    0.0000
    703 C          96.0906  156.2716   35.1819 C.3     117        0    0.0000
    704 C          97.5310  156.6292   35.5648 C.3     117        0    0.0000
    705 H          95.9516  156.3788   34.0990 H       117        0    0.0000
    706 H          95.3904  156.9678   35.6599 H       117        0    0.0000
    707 H          97.6128  156.7473   36.6524 H       117        0    0.0000
    708 H          98.2084  155.8130   35.2846 H       117        0    0.0000
    709 C          98.0186  157.9498   34.8750 C.3     118        0    0.0000
    710 C          99.4412  158.3342   35.2963 C.3     118        0    0.0000
    711 H          97.9710  157.8188   33.7868 H       118        0    0.0000
    712 H          97.3206  158.7582   35.1258 H       118        0    0.0000
    713 H          99.4843  158.4843   36.3822 H       118        0    0.0000
    714 H         100.1360  157.5177   35.0634 H       118        0    0.0000
    715 C          99.9391  159.6396   34.5856 C.3     119        0    0.0000
    716 C         101.4571  159.8191   34.6974 C.3     119        0    0.0000
    717 H          99.6413  159.6033   33.5303 H       119        0    0.0000
    718 H          99.4247  160.5015   35.0285 H       119        0    0.0000
    719 H         101.7387  159.9975   35.7426 H       119        0    0.0000
    720 H         101.9685  158.8999   34.3859 H       119        0    0.0000
    721 C         101.9806  161.0100   33.8226 C.3     120        0    0.0000
    722 C         103.5088  161.0169   33.7058 C.3     120        0    0.0000
    723 H         101.5274  160.9425   32.8259 H       120        0    0.0000
    724 H         101.6328  161.9524   34.2637 H       120        0    0.0000
    725 H         103.9611  161.1599   34.6950 H       120        0    0.0000
    726 H         103.8621  160.0467   33.3350 H       120        0    0.0000
    727 C         104.0261  162.1434   32.7461 C.3     121        0    0.0000
    728 C         105.5444  162.3320   32.8371 C.3     121        0    0.0000
    729 H         103.7393  161.8911   31.7177 H       121        0    0.0000
    730 H         103.5150  163.0818   32.9945 H       121        0    0.0000
    731 H         105.8567  162.3677   33.8882 H       121        0    0.0000
    732 H         106.0578  161.4743   32.3849 H       121        0    0.0000
    733 C         106.0242  163.6422   32.1226 C.3     122        0    0.0000
    734 C         107.1848  164.3160   32.8631 C.3     122        0    0.0000
    735 H         106.3250  163.3957   31.0968 H       122        0    0.0000
    736 H         105.1759  164.3335   32.0447 H       122        0    0.0000
    737 H         107.0659  164.1864   33.9460 H       122        0    0.0000
    738 H         108.1334  163.8369   32.5907 H       122        0    0.0000
    739 C         107.2828  165.8479   32.5453 C.3     123        0    0.0000
    740 C         107.9435  166.6358   33.6818 C.3     123        0    0.0000
    741 H         107.8504  165.9807   31.6160 H       123        0    0.0000
    742 H         106.2738  166.2351   32.3562 H       123        0    0.0000
    743 H         107.4622  166.3930   34.6373 H       123        0    0.0000
    744 H         108.9973  166.3460   33.7773 H       123        0    0.0000
    745 C         107.8640  168.1849   33.4553 C.3     124        0    0.0000
    746 C         108.9374  168.9431   34.2439 C.3     124        0    0.0000
    747 H         107.9690  168.3913   32.3830 H       124        0    0.0000
    748 H         106.8658  168.5342   33.7471 H       124        0    0.0000
    749 H         108.7705  168.8194   35.3211 H       124        0    0.0000
    750 H         109.9284  168.5246   34.0286 H       124        0    0.0000
    751 C         108.9515  170.4742   33.9074 C.3     125        0    0.0000
    752 C         110.1173  171.2063   34.5812 C.3     125        0    0.0000
    753 H         109.0093  170.5964   32.8187 H       125        0    0.0000
    754 H         107.9977  170.9145   34.2236 H       125        0    0.0000
    755 H         110.0133  171.1555   35.6721 H       125        0    0.0000
    756 H         111.0653  170.7136   34.3318 H       125        0    0.0000
    757 C         110.2017  172.7114   34.1511 C.3     126        0    0.0000
    758 C         111.6313  173.1347   33.7959 C.3     126        0    0.0000
    759 H         109.5376  172.8717   33.2927 H       126        0    0.0000
    760 H         109.8168  173.3346   34.9679 H       126        0    0.0000
    761 H         112.1856  173.3899   34.7075 H       126        0    0.0000
    762 H         112.1651  172.2994   33.3260 H       126        0    0.0000
    763 C         111.6626  174.3647   32.8245 C.3     127        0    0.0000
    764 C         113.0881  174.7315   32.3974 C.3     127        0    0.0000
    765 H         111.0531  174.1339   31.9419 H       127        0    0.0000
    766 H         111.1869  175.2196   33.3209 H       127        0    0.0000
    767 H         113.6884  174.9944   33.2772 H       127        0    0.0000
    768 H         113.5753  173.8664   31.9307 H       127        0    0.0000
    769 C         113.1161  175.9319   31.3896 C.3     128        0    0.0000
    770 C         114.5444  176.3741   31.0525 C.3     128        0    0.0000
    771 H         112.5876  175.6375   30.4744 H       128        0    0.0000
    772 H         112.5550  176.7697   31.8218 H       128        0    0.0000
    773 H         115.1471  175.5062   30.7576 H       128        0    0.0000
    774 H         114.5340  177.0569   30.1939 H       128        0    0.0000
    775 C         115.2449  177.0896   32.2586 C.3     129        0    0.0000
    776 C         116.6329  177.6249   31.8897 C.3     129        0    0.0000
    777 H         114.6043  177.9109   32.6030 H       129        0    0.0000
    778 H         115.3244  176.3811   33.0924 H       129        0    0.0000
    779 H         117.3731  176.8167   31.9389 H       129        0    0.0000
    780 H         116.6327  177.9894   30.8550 H       129        0    0.0000
    781 C         117.0915  178.7882   32.8352 C.3     130        0    0.0000
    782 C         118.4993  179.2910   32.4967 C.3     130        0    0.0000
    783 H         116.3699  179.6110   32.7592 H       130        0    0.0000
    784 H         117.0579  178.4345   33.8731 H       130        0    0.0000
    785 H         119.2116  178.4569   32.5170 H       130        0    0.0000
    786 H         118.5188  179.6972   31.4778 H       130        0    0.0000
    787 C         118.9897  180.3987   33.4918 C.3     131        0    0.0000
    788 C         120.4107  180.8770   33.1739 C.3     131        0    0.0000
    789 H         118.2909  181.2434   33.4529 H       131        0    0.0000
    790 H         118.9464  180.0007   34.5132 H       131        0    0.0000
    791 H         121.1078  180.0304   33.2025 H       131        0    0.0000
    792 H         120.4516  181.2846   32.1562 H       131        0    0.0000
    793 C         120.9067  181.9741   34.1779 C.3     132        0    0.0000
    794 C         122.3091  181.6749   34.7189 C.3     132        0    0.0000
    795 H         120.8987  182.9470   33.6709 H       132        0    0.0000
    796 H         120.1910  182.0448   35.0064 H       132        0    0.0000
    797 H         122.4754  180.5911   34.7542 H       132        0    0.0000
    798 H         123.0688  182.0884   34.0439 H       132        0    0.0000
    799 C         122.5314  182.2672   36.1532 C.3     133        0    0.0000
    800 C         123.9020  182.9375   36.2988 C.3     133        0    0.0000
    801 H         121.7344  182.9910   36.3643 H       133        0    0.0000
    802 H         122.4272  181.4603   36.8891 H       133        0    0.0000
    803 H         124.6993  182.2096   36.1037 H       133        0    0.0000
    804 H         124.0127  183.7336   35.5522 H       133        0    0.0000
    805 C         124.1152  183.5500   37.7260 C.3     134        0    0.0000
    806 C         125.5984  183.7491   38.0571 C.3     134        0    0.0000
    807 H         123.5852  184.5090   37.7820 H       134        0    0.0000
    808 H         123.6497  182.8890   38.4676 H       134        0    0.0000
    809 H         126.2090  183.0325   37.4939 H       134        0    0.0000
    810 H         125.9218  184.7506   37.7471 H       134        0    0.0000
    811 C         125.8946  183.5732   39.5864 C.3     135        0    0.0000
    812 C         127.2568  182.9192   39.8427 C.3     135        0    0.0000
    813 H         125.8526  184.5570   40.0701 H       135        0    0.0000
    814 H         125.0965  182.9679   40.0338 H       135        0    0.0000
    815 H         127.4753  182.1850   39.0574 H       135        0    0.0000
    816 H         128.0511  183.6745   39.7977 H       135        0    0.0000
    817 C         127.3191  182.2027   41.2356 C.3     136        0    0.0000
    818 C         128.5966  181.3730   41.4055 C.3     136        0    0.0000
    819 H         127.2548  182.9605   42.0263 H       136        0    0.0000
    820 H         126.4363  181.5602   41.3426 H       136        0    0.0000
    821 H         128.6917  180.6559   40.5807 H       136        0    0.0000
    822 H         129.4775  182.0252   41.3592 H       136        0    0.0000
    823 C         128.6194  180.5884   42.7624 C.3     137        0    0.0000
    824 C         129.9112  179.7845   42.9468 C.3     137        0    0.0000
    825 H         128.5003  181.3031   43.5862 H       137        0    0.0000
    826 H         127.7512  179.9187   42.7983 H       137        0    0.0000
    827 H         130.0550  179.1038   42.0986 H       137        0    0.0000
    828 H         130.7758  180.4595   42.9592 H       137        0    0.0000
    829 C         129.9054  178.9465   44.2717 C.3     138        0    0.0000
    830 C         131.1850  178.1202   44.4419 C.3     138        0    0.0000
    831 H         129.7828  179.6294   45.1215 H       138        0    0.0000
    832 H         129.0291  178.2865   44.2689 H       138        0    0.0000
    833 H         132.0608  178.7231   44.1717 H       138        0    0.0000
    834 H         131.3113  177.8348   45.4936 H       138        0    0.0000
    835 C         131.1749  176.8218   43.5636 C.3     139        0    0.0000
    836 C         132.4063  175.9434   43.8114 C.3     139        0    0.0000
    837 H         130.2599  176.2562   43.7791 H       139        0    0.0000
    838 H         131.1253  177.1104   42.5064 H       139        0    0.0000
    839 H         132.3149  175.0021   43.2555 H       139        0    0.0000
    840 H         133.3073  176.4445   43.4364 H       139        0    0.0000
    841 C         132.6060  175.6154   45.3313 C.3     140        0    0.0000
    842 C         133.8809  174.8043   45.5878 C.3     140        0    0.0000
    843 H         132.6389  176.5561   45.8947 H       140        0    0.0000
    844 H         131.7296  175.0626   45.6918 H       140        0    0.0000
    845 H         134.7608  175.4564   45.5237 H       140        0    0.0000
    846 H         133.8669  174.3931   46.6047 H       140        0    0.0000
    847 C         134.0503  173.6255   44.5683 C.3     141        0    0.0000
    848 C         135.3018  172.7875   44.8521 C.3     141        0    0.0000
    849 H         133.1559  172.9916   44.6090 H       141        0    0.0000
    850 H         134.0971  174.0396   43.5535 H       141        0    0.0000
    851 H         135.8119  172.5430   43.9121 H       141        0    0.0000
    852 H         136.0129  173.3657   45.4552 H       141        0    0.0000
    853 C         134.9661  171.4549   45.6063 C.3     142        0    0.0000
    854 C         136.2018  170.5687   45.7979 C.3     142        0    0.0000
    855 H         134.5251  171.7012   46.5802 H       142        0    0.0000
    856 H         134.1982  170.9124   45.0409 H       142        0    0.0000
    857 H         136.8972  171.0403   46.5033 H       142        0    0.0000
    858 H         135.9104  169.6070   46.2382 H       142        0    0.0000
    859 C         136.9548  170.2996   44.4496 C.3     143        0    0.0000
    860 C         138.2075  169.4387   44.6457 C.3     143        0    0.0000
    861 H         136.2658  169.8078   43.7518 H       143        0    0.0000
    862 H         137.2265  171.2619   43.9982 H       143        0    0.0000
    863 H         138.5963  169.1131   43.6729 H       143        0    0.0000
    864 H         139.0003  170.0306   45.1197 H       143        0    0.0000
    865 C         137.9266  168.1729   45.5268 C.3     144        0    0.0000
    866 C         139.2178  167.4900   45.9909 C.3     144        0    0.0000
    867 H         137.3265  168.4726   46.3950 H       144        0    0.0000
    868 H         137.3151  167.4686   44.9492 H       144        0    0.0000
    869 H         139.8866  167.3296   45.1362 H       144        0    0.0000
    870 H         139.7548  168.1388   46.6938 H       144        0    0.0000
    871 C         138.9443  166.1109   46.6842 C.3     145        0    0.0000
    872 C         140.2390  165.3964   47.0871 C.3     145        0    0.0000
    873 H         138.3162  166.2778   47.5680 H       145        0    0.0000
    874 H         138.3639  165.4799   45.9998 H       145        0    0.0000
    875 H         140.9002  165.2971   46.2173 H       145        0    0.0000
    876 H         140.7828  165.9936   47.8296 H       145        0    0.0000
    877 C         139.9706  163.9715   47.6830 C.3     146        0    0.0000
    878 C         140.8804  162.9033   47.0665 C.3     146        0    0.0000
    879 H         140.1176  164.0092   48.7696 H       146        0    0.0000
    880 H         138.9181  163.7111   47.5163 H       146        0    0.0000
    881 H         141.1179  163.1652   46.0280 H       146        0    0.0000
    882 H         141.8341  162.8636   47.6074 H       146        0    0.0000
    883 C         140.2258  161.4791   47.0913 C.3     147        0    0.0000
    884 C         140.5312  160.6772   45.8213 C.3     147        0    0.0000
    885 H         140.5890  160.9383   47.9740 H       147        0    0.0000
    886 H         139.1414  161.5905   47.2142 H       147        0    0.0000
    887 H         140.4852  161.3324   44.9426 H       147        0    0.0000
    888 H         141.5526  160.2791   45.8643 H       147        0    0.0000
    889 C         139.5328  159.4861   45.6163 C.3     148        0    0.0000
    890 C         139.7520  158.7679   44.2802 C.3     148        0    0.0000
    891 H         139.6503  158.7793   46.4470 H       148        0    0.0000
    892 H         138.5070  159.8709   45.6727 H       148        0    0.0000
    893 H         140.0034  159.4957   43.4987 H       148        0    0.0000
    894 H         140.6044  158.0816   44.3575 H       148        0    0.0000
    895 C         138.4893  157.9566   43.8277 C.3     149        0    0.0000
    896 C         138.6953  157.2691   42.4734 C.3     149        0    0.0000
    897 H         138.2544  157.2102   44.5966 H       149        0    0.0000
    898 H         137.6308  158.6377   43.7770 H       149        0    0.0000
    899 H         139.4077  156.4412   42.5764 H       149        0    0.0000
    900 H         137.7512  156.8310   42.1265 H       149        0    0.0000
    901 C         139.2253  158.2587   41.3793 C.3     150        0    0.0000
    902 C         139.5843  157.5421   40.0729 C.3     150        0    0.0000
    903 H         138.4596  159.0216   41.1918 H       150        0    0.0000
    904 H         140.1039  158.7843   41.7736 H       150        0    0.0000
    905 H         139.1482  158.0755   39.2191 H       150        0    0.0000
    906 H         140.6715  157.5488   39.9266 H       150        0    0.0000
    907 C         139.0808  156.0576   40.0518 C.3     151        0    0.0000
    908 C         139.5810  155.2921   38.8218 C.3     151        0    0.0000
    909 H         139.4166  155.5573   40.9685 H       151        0    0.0000
    910 H         137.9840  156.0559   40.0755 H       151        0    0.0000
    911 H         138.7727  154.6770   38.4071 H       151        0    0.0000
    912 H         139.8763  155.9967   38.0345 H       151        0    0.0000
    913 C         140.8011  154.3656   39.1543 C.3     152        0    0.0000
    914 C         140.8711  153.1438   38.2317 C.3     152        0    0.0000
    915 H         141.7239  154.9530   39.0715 H       152        0    0.0000
    916 H         140.7256  154.0433   40.2003 H       152        0    0.0000
    917 H         139.8829  152.6735   38.1546 H       152        0    0.0000
    918 H         141.1525  153.4538   37.2177 H       152        0    0.0000
    919 C         141.9009  152.0756   38.7376 C.3     153        0    0.0000
    920 C         141.5019  150.6502   38.3400 C.3     153        0    0.0000
    921 H         142.8902  152.3170   38.3293 H       153        0    0.0000
    922 H         141.9831  152.1527   39.8288 H       153        0    0.0000
    923 H         140.4487  150.4710   38.5895 H       153        0    0.0000
    924 H         141.5946  150.5226   37.2543 H       153        0    0.0000
    925 C         142.3817  149.5662   39.0531 C.3     154        0    0.0000
    926 C         143.0690  148.6277   38.0553 C.3     154        0    0.0000
    927 H         143.1327  150.0719   39.6726 H       154        0    0.0000
    928 H         141.7466  148.9889   39.7364 H       154        0    0.0000
    929 H         142.4226  147.7675   37.8412 H       154        0    0.0000
    930 H         143.2305  149.1454   37.1017 H       154        0    0.0000
    931 C         144.4481  148.1037   38.5856 C.3     155        0    0.0000
    932 C         144.3721  146.6494   39.0634 C.3     155        0    0.0000
    933 H         145.1934  148.1985   37.7862 H       155        0    0.0000
    934 H         144.7811  148.7522   39.4054 H       155        0    0.0000
    935 H         143.3374  146.3920   39.3218 H       155        0    0.0000
    936 H         144.6729  145.9716   38.2550 H       155        0    0.0000
    937 C         145.2849  146.3853   40.3102 C.3     156        0    0.0000
    938 C         146.4175  145.3997   40.0025 C.3     156        0    0.0000
    939 H         145.7006  147.3410   40.6529 H       156        0    0.0000
    940 H         144.6634  146.0006   41.1283 H       156        0    0.0000
    941 H         146.0739  144.3701   40.1620 H       156        0    0.0000
    942 H         146.7057  145.4756   38.9466 H       156        0    0.0000
    943 C         147.6837  145.6532   40.8913 C.3     157        0    0.0000
    944 C         148.9886  145.4767   40.1072 C.3     157        0    0.0000
    945 H         147.6278  146.6677   41.3051 H       157        0    0.0000
    946 H         147.6609  144.9635   41.7441 H       157        0    0.0000
    947 H         149.2139  144.4097   39.9871 H       157        0    0.0000
    948 H         148.8798  145.8913   39.0974 H       157        0    0.0000
    949 C         150.2037  146.1734   40.8113 C.3     158        0    0.0000
    950 C         151.2503  145.1644   41.2968 C.3     158        0    0.0000
    951 H         150.6610  146.8812   40.1089 H       158        0    0.0000
    952 H         149.8309  146.7649   41.6567 H       158        0    0.0000
    953 H         150.7738  144.1981   41.5033 H       158        0    0.0000
    954 H         151.9948  144.9870   40.5107 H       158        0    0.0000
    955 C         151.9886  145.6507   42.5913 C.3     159        0    0.0000
    956 C         153.4442  145.1737   42.6438 C.3     159        0    0.0000
    957 H         151.9502  146.7464   42.6298 H       159        0    0.0000
    958 H         151.4411  145.2853   43.4690 H       159        0    0.0000
    959 H         153.5174  144.1469   42.2644 H       159        0    0.0000
    960 H         154.0678  145.7962   41.9903 H       159        0    0.0000
    961 C         154.0323  145.2189   44.0962 C.3     160        0    0.0000
    962 C         155.2723  144.3311   44.2487 C.3     160        0    0.0000
    963 H         154.2808  146.2581   44.3449 H       160        0    0.0000
    964 H         153.2545  144.9032   44.8026 H       160        0    0.0000
    965 H         155.1102  143.3691   43.7469 H       160        0    0.0000
    966 H         156.1339  144.8009   43.7584 H       160        0    0.0000
    967 C         155.6300  144.0632   45.7513 C.3     161        0    0.0000
    968 C         156.6521  142.9325   45.9124 C.3     161        0    0.0000
    969 H         156.0204  144.9888   46.1923 H       161        0    0.0000
    970 H         154.7096  143.8186   46.2958 H       161        0    0.0000
    971 H         156.4658  142.1482   45.1683 H       161        0    0.0000
    972 H         157.6645  143.3110   45.7243 H       161        0    0.0000
    973 C         156.6095  142.2924   47.3428 C.3     162        0    0.0000
    974 C         157.6108  141.1420   47.4944 C.3     162        0    0.0000
    975 H         156.8175  143.0726   48.0856 H       162        0    0.0000
    976 H         155.5916  141.9336   47.5394 H       162        0    0.0000
    977 H         158.6350  141.5348   47.5136 H       162        0    0.0000
    978 H         157.4522  140.6289   48.4510 H       162        0    0.0000
    979 C         157.4929  140.0949   46.3337 C.3     163        0    0.0000
    980 C         158.5452  138.9859   46.4428 C.3     163        0    0.0000
    981 H         156.4856  139.6607   46.3502 H       163        0    0.0000
    982 H         157.5950  140.6174   45.3745 H       163        0    0.0000
    983 H         158.0596  138.0026   46.4150 H       163        0    0.0000
    984 H         159.2246  139.0261   45.5824 H       163        0    0.0000
    985 C         159.3895  139.0955   47.7590 C.3     164        0    0.0000
    986 C         160.3062  137.8843   47.9636 C.3     164        0    0.0000
    987 H         159.9852  140.0160   47.7214 H       164        0    0.0000
    988 H         158.7054  139.1976   48.6106 H       164        0    0.0000
    989 H         160.4681  137.3695   47.0085 H       164        0    0.0000
    990 H         161.2919  138.2137   48.3150 H       164        0    0.0000
    991 C         159.7178  136.8615   48.9956 C.3     165        0    0.0000
    992 C         160.6610  135.6793   49.2440 C.3     165        0    0.0000
    993 H         159.5160  137.3861   49.9377 H       165        0    0.0000
    994 H         158.7513  136.4998   48.6231 H       165        0    0.0000
    995 H         160.9807  135.6672   50.2934 H       165        0    0.0000
    996 H         160.1345  134.7337   49.0642 H       165        0    0.0000
    997 C         161.9328  135.7315   48.3290 C.3     166        0    0.0000
    998 C         162.9246  134.6074   48.6481 C.3     166        0    0.0000
    999 H         161.6167  135.6678   47.2803 H       166        0    0.0000
   1000 H         162.4179  136.7076   48.4530 H       166        0    0.0000
   1001 H         163.6569  134.5104   47.8371 H       166        0    0.0000
   1002 H         163.4903  134.8514   49.5558 H       166        0    0.0000
   1003 C         162.2116  133.2264   48.8530 C.3     167        0    0.0000
   1004 C         163.1664  132.1535   49.3882 C.3     167        0    0.0000
   1005 H         161.3714  133.3616   49.5455 H       167        0    0.0000
   1006 H         161.7825  132.9046   47.8960 H       167        0    0.0000
   1007 H         162.9436  131.9433   50.4416 H       167        0    0.0000
   1008 H         163.0203  131.2136   48.8416 H       167        0    0.0000
   1009 C         164.6695  132.5812   49.2652 C.3     168        0    0.0000
   1010 C         165.6230  131.5201   49.8255 C.3     168        0    0.0000
   1011 H         164.8976  132.7719   48.2092 H       168        0    0.0000
   1012 H         164.8112  133.5315   49.7947 H       168        0    0.0000
   1013 H         166.6578  131.7635   49.5544 H       168        0    0.0000
   1014 H         165.5775  131.5146   50.9216 H       168        0    0.0000
   1015 C         165.2876  130.0823   49.2985 C.3     169        0    0.0000
   1016 C         166.0592  128.9930   50.0516 C.3     169        0    0.0000
   1017 H         164.2079  129.9133   49.3949 H       169        0    0.0000
   1018 H         165.5195  130.0352   48.2273 H       169        0    0.0000
   1019 H         165.4280  128.5598   50.8374 H       169        0    0.0000
   1020 H         166.3178  128.1745   49.3684 H       169        0    0.0000
   1021 C         167.3749  129.5406   50.7048 C.3     170        0    0.0000
   1022 C         168.1961  128.4326   51.3735 C.3     170        0    0.0000
   1023 H         167.9733  130.0377   49.9313 H       170        0    0.0000
   1024 H         167.1105  130.3095   51.4413 H       170        0    0.0000
   1025 H         169.1531  128.8354   51.7277 H       170        0    0.0000
   1026 H         167.6674  128.0537   52.2570 H       170        0    0.0000
   1027 C         168.4802  127.2353   50.4024 C.3     171        0    0.0000
   1028 C         169.0851  126.0290   51.1291 C.3     171        0    0.0000
   1029 H         167.5420  126.9473   49.9121 H       171        0    0.0000
   1030 H         169.1582  127.5759   49.6100 H       171        0    0.0000
   1031 H         168.3322  125.2385   51.2371 H       171        0    0.0000
   1032 H         169.9046  125.6046   50.5359 H       171        0    0.0000
   1033 C         169.6314  126.4040   52.5499 C.3     172        0    0.0000
   1034 C         170.3581  125.2330   53.2204 C.3     172        0    0.0000
   1035 H         170.3089  127.2614   52.4532 H       172        0    0.0000
   1036 H         168.7928  126.7340   53.1754 H       172        0    0.0000
   1037 H         170.7948  125.5572   54.1731 H       172        0    0.0000
   1038 H         169.6451  124.4334   53.4566 H       172        0    0.0000
   1039 C         171.4963  124.6445   52.3172 C.3     173        0    0.0000
   1040 C         172.1034  123.3666   52.9066 C.3     173        0    0.0000
   1041 H         171.0868  124.4412   51.3199 H       173        0    0.0000
   1042 H         172.2752  125.4064   52.1886 H       173        0    0.0000
   1043 H         171.9799  123.3595   53.9967 H       173        0    0.0000
   1044 H         171.5721  122.4865   52.5237 H       173        0    0.0000
   1045 C         173.6276  123.2228   52.5698 C.3     174        0    0.0000
   1046 C         174.2176  121.9100   53.0966 C.3     174        0    0.0000
   1047 H         173.7567  123.2834   51.4820 H       174        0    0.0000
   1048 H         174.1667  124.0765   52.9991 H       174        0    0.0000
   1049 H         175.2492  121.7924   52.7426 H       174        0    0.0000
   1050 H         174.2610  121.9302   54.1926 H       174        0    0.0000
   1051 C         173.3835  120.6611   52.6469 C.3     175        0    0.0000
   1052 C         173.8151  119.3823   53.3731 C.3     175        0    0.0000
   1053 H         172.3209  120.8596   52.8338 H       175        0    0.0000
   1054 H         173.4943  120.5337   51.5629 H       175        0    0.0000
   1055 H         174.8042  119.0648   53.0203 H       175        0    0.0000
   1056 H         173.9112  119.5748   54.4489 H       175        0    0.0000
   1057 C         172.8008  118.2064   53.1589 C.3     176        0    0.0000
   1058 C         173.5039  116.8526   53.0105 C.3     176        0    0.0000
   1059 H         172.1069  118.1788   54.0082 H       176        0    0.0000
   1060 H         172.1983  118.4172   52.2666 H       176        0    0.0000
   1061 H         174.5522  117.0026   52.7239 H       176        0    0.0000
   1062 H         173.5126  116.3258   53.9728 H       176        0    0.0000
   1063 C         172.8132  115.9386   51.9404 C.3     177        0    0.0000
   1064 C         173.4944  114.5711   51.8179 C.3     177        0    0.0000
   1065 H         171.7583  115.8104   52.2128 H       177        0    0.0000
   1066 H         172.8282  116.4544   50.9723 H       177        0    0.0000
   1067 H         174.5280  114.6954   51.4717 H       177        0    0.0000
   1068 H         173.5475  114.0879   52.8014 H       177        0    0.0000
   1069 C         172.7407  113.6186   50.8269 C.3     178        0    0.0000
   1070 C         173.4178  112.2486   50.7099 C.3     178        0    0.0000
   1071 H         171.7056  113.4986   51.1702 H       178        0    0.0000
   1072 H         172.6922  114.0996   49.8421 H       178        0    0.0000
   1073 H         174.4494  112.3678   50.3562 H       178        0    0.0000
   1074 H         173.4761  111.7723   51.6965 H       178        0    0.0000
   1075 C         172.6554  111.2908   49.7307 C.3     179        0    0.0000
   1076 C         173.3550  109.9353   49.5819 C.3     179        0    0.0000
   1077 H         171.6326  111.1476   50.1009 H       179        0    0.0000
   1078 H         172.5707  111.7798   48.7523 H       179        0    0.0000
   1079 H         174.4034  110.0827   49.2943 H       179        0    0.0000
   1080 H         173.3634  109.4087   50.5443 H       179        0    0.0000
   1081 C         172.6613  109.0228   48.5126 C.3     180        0    0.0000
   1082 C         173.4924  107.7776   48.1844 C.3     180        0    0.0000
   1083 H         171.6732  108.7277   48.8871 H       180        0    0.0000
   1084 H         172.4904  109.6115   47.6028 H       180        0    0.0000
   1085 H         174.5381  108.0588   48.0088 H       180        0    0.0000
   1086 H         173.4906  107.0885   49.0380 H       180        0    0.0000
   1087 C         172.9542  107.0198   46.9221 C.3     181        0    0.0000
   1088 C         174.0836  106.5733   45.9872 C.3     181        0    0.0000
   1089 H         172.3736  106.1497   47.2529 H       181        0    0.0000
   1090 H         172.2589  107.6768   46.3850 H       181        0    0.0000
   1091 H         175.0343  106.5423   46.5339 H       181        0    0.0000
   1092 H         173.8937  105.5545   45.6276 H       181        0    0.0000
   1093 C         174.2425  107.5242   44.7510 C.3     182        0    0.0000
   1094 C         174.1283  106.7715   43.4208 C.3     182        0    0.0000
   1095 H         173.4766  108.3076   44.8069 H       182        0    0.0000
   1096 H         175.2145  108.0287   44.8156 H       182        0    0.0000
   1097 H         174.8362  107.1857   42.6923 H       182        0    0.0000
   1098 H         174.4001  105.7178   43.5603 H       182        0    0.0000
   1099 C         172.6827  106.8450   42.8188 C.3     183        0    0.0000
   1100 C         172.6818  107.3434   41.3695 C.3     183        0    0.0000
   1101 H         172.2255  105.8493   42.8745 H       183        0    0.0000
   1102 H         172.0722  107.5074   43.4449 H       183        0    0.0000
   1103 H         173.6126  107.8837   41.1569 H       183        0    0.0000
   1104 H         172.6470  106.4918   40.6788 H       183        0    0.0000
   1105 C         171.4684  108.2889   41.0672 C.3     184        0    0.0000
   1106 C         171.9169  109.6887   40.6331 C.3     184        0    0.0000
   1107 H         170.8507  107.8321   40.2841 H       184        0    0.0000
   1108 H         170.8407  108.3564   41.9644 H       184        0    0.0000
   1109 H         172.9530  109.6572   40.2737 H       184        0    0.0000
   1110 H         171.3027  110.0370   39.7935 H       184        0    0.0000
   1111 C         171.8180  110.7324   41.7987 C.3     185        0    0.0000
   1112 C         170.8726  111.8909   41.4623 C.3     185        0    0.0000
   1113 H         171.4754  110.2184   42.7054 H       185        0    0.0000
   1114 H         172.8223  111.1171   42.0151 H       185        0    0.0000
   1115 H         171.3123  112.8418   41.7878 H       185        0    0.0000
   1116 H         170.7366  111.9621   40.3761 H       185        0    0.0000
   1117 C         169.4676  111.7264   42.1378 C.3     186        0    0.0000
   1118 C         169.0407  112.9834   42.9039 C.3     186        0    0.0000
   1119 H         168.7283  111.4890   41.3628 H       186        0    0.0000
   1120 H         169.5002  110.8651   42.8165 H       186        0    0.0000
   1121 H         169.9230  113.5756   43.1764 H       186        0    0.0000
   1122 H         168.4187  113.6211   42.2635 H       186        0    0.0000
   1123 C         168.2394  112.6413   44.2072 C.3     187        0    0.0000
   1124 C         166.8069  113.1847   44.1677 C.3     187        0    0.0000
   1125 H         168.2251  111.5522   44.3378 H       187        0    0.0000
   1126 H         168.7751  113.0552   45.0704 H       187        0    0.0000
   1127 H         166.7977  114.2427   44.4579 H       187        0    0.0000
   1128 H         166.4138  113.1352   43.1447 H       187        0    0.0000
   1129 C         165.8443  112.3919   45.1177 C.3     188        0    0.0000
   1130 C         164.6090  113.2108   45.5080 C.3     188        0    0.0000
   1131 H         165.5384  111.4648   44.6174 H       188        0    0.0000
   1132 H         166.3992  112.0964   46.0168 H       188        0    0.0000
   1133 H         164.9155  114.1497   45.9857 H       188        0    0.0000
   1134 H         164.0405  113.4849   44.6107 H       188        0    0.0000
   1135 C         163.6642  112.4312   46.4862 C.3     189        0    0.0000
   1136 C         162.2028  112.4552   46.0247 C.3     189        0    0.0000
   1137 H         164.0161  111.3953   46.5672 H       189        0    0.0000
   1138 H         163.7499  112.8722   47.4871 H       189        0    0.0000
   1139 H         161.6569  113.2515   46.5457 H       189        0    0.0000
   1140 H         162.1504  112.6860   44.9535 H       189        0    0.0000
   1141 C         161.4755  111.0909   46.2839 C.3     190        0    0.0000
   1142 C         160.6050  110.6622   45.0975 C.3     190        0    0.0000
   1143 H         162.2297  110.3224   46.4941 H       190        0    0.0000
   1144 H         160.8604  111.1842   47.1875 H       190        0    0.0000
   1145 H         159.5855  111.0482   45.2201 H       190        0    0.0000
   1146 H         160.9961  111.0948   44.1683 H       190        0    0.0000
   1147 C         160.5399  109.1037   44.9409 C.3     191        0    0.0000
   1148 C         159.5818  108.6716   43.8254 C.3     191        0    0.0000
   1149 H         161.5496  108.7264   44.7368 H       191        0    0.0000
   1150 H         160.2269  108.6651   45.8965 H       191        0    0.0000
   1151 H         158.6190  109.1857   43.9363 H       191        0    0.0000
   1152 H         159.9851  108.9654   42.8484 H       191        0    0.0000
   1153 C         159.3311  107.1241   43.8239 C.3     192        0    0.0000
   1154 C         158.2542  106.7111   42.8146 C.3     192        0    0.0000
   1155 H         160.2751  106.6132   43.5970 H       192        0    0.0000
   1156 H         159.0391  106.8123   44.8344 H       192        0    0.0000
   1157 H         157.3472  107.3094   42.9664 H       192        0    0.0000
   1158 H         158.5984  106.9144   41.7930 H       192        0    0.0000
   1159 C         157.8830  105.1925   42.9300 C.3     193        0    0.0000
   1160 C         156.7879  104.7852   41.9380 C.3     193        0    0.0000
   1161 H         158.7863  104.5937   42.7597 H       193        0    0.0000
   1162 H         157.5566  104.9852   43.9566 H       193        0    0.0000
   1163 H         156.6882  103.6929   41.9153 H       193        0    0.0000
   1164 H         155.8187  105.1833   42.2633 H       193        0    0.0000
   1165 C         157.0821  105.2960   40.4855 C.3     194        0    0.0000
   1166 C         155.8159  105.3592   39.6243 C.3     194        0    0.0000
   1167 H         157.5453  106.2886   40.5467 H       194        0    0.0000
   1168 H         157.8209  104.6319   40.0199 H       194        0    0.0000
   1169 H         155.7328  104.4538   39.0105 H       194        0    0.0000
   1170 H         154.9260  105.3880   40.2654 H       194        0    0.0000
   1171 C         155.8003  106.6117   38.6817 C.3     195        0    0.0000
   1172 C         154.3813  107.1360   38.4358 C.3     195        0    0.0000
   1173 H         156.4198  107.3988   39.1293 H       195        0    0.0000
   1174 H         156.2725  106.3429   37.7287 H       195        0    0.0000
   1175 H         153.8225  106.4295   37.8096 H       195        0    0.0000
   1176 H         153.8384  107.2123   39.3861 H       195        0    0.0000
   1177 C         154.3792  108.5401   37.7386 C.3     196        0    0.0000
   1178 C         153.1954  109.4069   38.1818 C.3     196        0    0.0000
   1179 H         155.3240  109.0492   37.9660 H       196        0    0.0000
   1180 H         154.3531  108.3951   36.6515 H       196        0    0.0000
   1181 H         152.2545  108.9681   37.8275 H       196        0    0.0000
   1182 H         153.1379  109.4336   39.2770 H       196        0    0.0000
   1183 C         153.3012  110.8761   37.6454 C.3     197        0    0.0000
   1184 C         151.9299  111.5494   37.5215 C.3     197        0    0.0000
   1185 H         153.9442  111.4537   38.3211 H       197        0    0.0000
   1186 H         153.8025  110.8611   36.6697 H       197        0    0.0000
   1187 H         151.2589  110.9275   36.9162 H       197        0    0.0000
   1188 H         151.4659  111.6427   38.5111 H       197        0    0.0000
   1189 C         152.0235  112.9727   36.8711 C.3     198        0    0.0000
   1190 C         151.3155  114.0423   37.7100 C.3     198        0    0.0000
   1191 H         153.0813  113.2341   36.7432 H       198        0    0.0000
   1192 H         151.5854  112.9318   35.8662 H       198        0    0.0000
   1193 H         150.2289  113.9627   37.5817 H       198        0    0.0000
   1194 H         151.5196  113.8806   38.7757 H       198        0    0.0000
   1195 C         151.7649  115.4937   37.3241 C.3     199        0    0.0000
   1196 C         150.5860  116.3695   36.8856 C.3     199        0    0.0000
   1197 H         152.2711  115.9478   38.1850 H       199        0    0.0000
   1198 H         152.5074  115.4317   36.5188 H       199        0    0.0000
   1199 H         149.8772  115.7772   36.2937 H       199        0    0.0000
   1200 H         150.0380  116.7303   37.7648 H       199        0    0.0000
   1201 C         151.0465  117.6036   36.0357 C.3     200        0    0.0000
   1202 C         149.9240  118.6297   35.8461 C.3     200        0    0.0000
   1203 H         151.9057  118.0730   36.5306 H       200        0    0.0000
   1204 H         151.4005  117.2486   35.0598 H       200        0    0.0000
   1205 H         149.0425  118.1462   35.4071 H       200        0    0.0000
   1206 H         149.6121  119.0301   36.8187 H       200        0    0.0000
   1207 C         150.3579  119.8216   34.9248 C.3     201        0    0.0000
   1208 C         149.3034  120.1473   33.8613 C.3     201        0    0.0000
   1209 H         150.5452  120.7026   35.5511 H       201        0    0.0000
   1210 H         151.3110  119.5682   34.4442 H       201        0    0.0000
   1211 H         148.6466  119.2826   33.7055 H       201        0    0.0000
   1212 H         148.6645  120.9703   34.2048 H       201        0    0.0000
   1213 C         149.9474  120.5466   32.4889 C.3     202        0    0.0000
   1214 C         148.8934  120.8984   31.4332 C.3     202        0    0.0000
   1215 H         150.6193  121.3990   32.6483 H       202        0    0.0000
   1216 H         150.5708  119.7158   32.1358 H       202        0    0.0000
   1217 H         149.1689  120.4600   30.4660 H       202        0    0.0000
   1218 H         147.9242  120.4657   31.7106 H       202        0    0.0000
   1219 C         148.7235  122.4467   31.2563 C.3     203        0    0.0000
   1220 C         147.5548  122.8007   30.3300 C.3     203        0    0.0000
   1221 H         148.5721  122.9009   32.2433 H       203        0    0.0000
   1222 H         149.6578  122.8618   30.8585 H       203        0    0.0000
   1223 H         147.8982  122.8383   29.2887 H       203        0    0.0000
   1224 H         146.7855  122.0202   30.3800 H       203        0    0.0000
   1225 C         146.9021  124.1779   30.6969 C.3     204        0    0.0000
   1226 C         145.7370  124.5345   29.7671 C.3     204        0    0.0000
   1227 H         146.5551  124.1389   31.7369 H       204        0    0.0000
   1228 H         147.6723  124.9577   30.6508 H       204        0    0.0000
   1229 H         146.0937  125.1612   28.9404 H       204        0    0.0000
   1230 H         145.3232  123.6239   29.3163 H       204        0    0.0000
   1231 C         144.5888  125.2934   30.5176 C.3     205        0    0.0000
   1232 C         143.3660  125.5273   29.6237 C.3     205        0    0.0000
   1233 H         144.3018  124.7135   31.4035 H       205        0    0.0000
   1234 H         144.9778  126.2525   30.8814 H       205        0    0.0000
   1235 H         142.6955  126.2611   30.0880 H       205        0    0.0000
   1236 H         143.6790  125.9512   28.6615 H       205        0    0.0000
   1237 C         142.5637  124.2072   29.3573 C.3     206        0    0.0000
   1238 C         141.2448  124.4676   28.6213 C.3     206        0    0.0000
   1239 H         143.1918  123.5234   28.7730 H       206        0    0.0000
   1240 H         142.3677  123.7127   30.3168 H       206        0    0.0000
   1241 H         141.2827  125.4395   28.1138 H       206        0    0.0000
   1242 H         141.0932  123.7108   27.8417 H       206        0    0.0000
   1243 C         140.0112  124.4506   29.5886 C.3     207        0    0.0000
   1244 C         138.6792  124.4297   28.8309 C.3     207        0    0.0000
   1245 H         140.0862  123.5725   30.2419 H       207        0    0.0000
   1246 H         140.0600  125.3325   30.2393 H       207        0    0.0000
   1247 H         138.5116  125.3953   28.3379 H       207        0    0.0000
   1248 H         138.7093  123.6721   28.0379 H       207        0    0.0000
   1249 C         137.4641  124.1261   29.7737 C.3     208        0    0.0000
   1250 C         136.1209  124.2359   29.0438 C.3     208        0    0.0000
   1251 H         137.5838  123.1189   30.1917 H       208        0    0.0000
   1252 H         137.4903  124.8236   30.6201 H       208        0    0.0000
   1253 H         136.1079  125.1331   28.4127 H       208        0    0.0000
   1254 H         135.9855  123.3776   28.3740 H       208        0    0.0000
   1255 C         134.9089  124.2985   30.0360 C.3     209        0    0.0000
   1256 C         133.6553  124.8932   29.3849 C.3     209        0    0.0000
   1257 H         134.6985  123.2858   30.4016 H       209        0    0.0000
   1258 H         135.1979  124.8952   30.9100 H       209        0    0.0000
   1259 H         133.7294  124.8229   28.2926 H       209        0    0.0000
   1260 H         132.7694  124.3164   29.6783 H       209        0    0.0000
   1261 C         133.4352  126.3939   29.7809 C.3     210        0    0.0000
   1262 C         132.3765  127.0759   28.9073 C.3     210        0    0.0000
   1263 H         133.1395  126.4414   30.8363 H       210        0    0.0000
   1264 H         134.3911  126.9256   29.6974 H       210        0    0.0000
   1265 H         132.2450  126.5185   27.9716 H       210        0    0.0000
   1266 H         131.4055  127.0680   29.4179 H       210        0    0.0000
   1267 C         132.7546  128.5580   28.5638 C.3     211        0    0.0000
   1268 C         131.7591  129.2011   27.5919 C.3     211        0    0.0000
   1269 H         132.7986  129.1366   29.4948 H       211        0    0.0000
   1270 H         133.7639  128.5749   28.1343 H       211        0    0.0000
   1271 H         131.8769  130.2918   27.5998 H       211        0    0.0000
   1272 H         131.9661  128.8692   26.5670 H       211        0    0.0000
   1273 C         130.2726  128.8508   27.9459 C.3     212        0    0.0000
   1274 C         129.2929  129.3135   26.8619 C.3     212        0    0.0000
   1275 H         130.1896  127.7664   28.0900 H       212        0    0.0000
   1276 H         130.0186  129.3166   28.9061 H       212        0    0.0000
   1277 H         128.9078  128.4480   26.3086 H       212        0    0.0000
   1278 H         128.4264  129.8039   27.3225 H       212        0    0.0000
   1279 C         129.9558  130.3076   25.8471 C.3     213        0    0.0000
   1280 C         128.9968  130.7159   24.7234 C.3     213        0    0.0000
   1281 H         130.2953  131.1964   26.3933 H       213        0    0.0000
   1282 H         130.8517  129.8363   25.4244 H       213        0    0.0000
   1283 H         128.9340  131.8094   24.6612 H       213        0    0.0000
   1284 H         129.3801  130.3669   23.7565 H       213        0    0.0000
   1285 C         127.5548  130.1382   24.9337 C.3     214        0    0.0000
   1286 C         126.5863  130.5780   23.8303 C.3     214        0    0.0000
   1287 H         127.6141  129.0433   24.9678 H       214        0    0.0000
   1288 H         127.1826  130.4642   25.9128 H       214        0    0.0000
   1289 H         126.6551  131.6624   23.6796 H       214        0    0.0000
   1290 H         126.8634  130.1094   22.8778 H       214        0    0.0000
   1291 C         125.0997  130.2072   24.1622 C.3     215        0    0.0000
   1292 C         124.1250  130.6949   23.0846 C.3     215        0    0.0000
   1293 H         125.0232  129.1185   24.2737 H       215        0    0.0000
   1294 H         124.8351  130.6427   25.1337 H       215        0    0.0000
   1295 H         124.1285  131.7911   23.0425 H       215        0    0.0000
   1296 H         124.4474  130.3407   22.0976 H       215        0    0.0000
   1297 C         122.6589  130.2038   23.3435 C.3     216        0    0.0000
   1298 C         121.6914  130.6591   22.2454 C.3     216        0    0.0000
   1299 H         122.6599  129.1090   23.4138 H       216        0    0.0000
   1300 H         122.3263  130.5818   24.3182 H       216        0    0.0000
   1301 H         120.7414  130.9799   22.6905 H       216        0    0.0000
   1302 H         122.1025  131.5293   21.7190 H       216        0    0.0000
   1303 C         121.4030  129.5264   21.2007 C.3     217        0    0.0000
   1304 C         120.2640  129.8952   20.2438 C.3     217        0    0.0000
   1305 H         122.3206  129.3261   20.6339 H       217        0    0.0000
   1306 H         121.1575  128.6027   21.7394 H       217        0    0.0000
   1307 H         120.3134  130.9622   19.9937 H       217        0    0.0000
   1308 H         120.3721  129.3452   19.3007 H       217        0    0.0000
   1309 C         118.8530  129.5835   20.8515 C.3     218        0    0.0000
   1310 C         117.7319  129.7156   19.8148 C.3     218        0    0.0000
   1311 H         118.8634  128.5682   21.2670 H       218        0    0.0000
   1312 H         118.6711  130.2657   21.6913 H       218        0    0.0000
   1313 H         117.2610  130.7033   19.8938 H       218        0    0.0000
   1314 H         118.1463  129.6443   18.8015 H       218        0    0.0000
   1315 C         116.6294  128.6149   19.9884 C.3     219        0    0.0000
   1316 C         115.5103  128.7447   18.9493 C.3     219        0    0.0000
   1317 H         117.1007  127.6272   19.9122 H       219        0    0.0000
   1318 H         116.2130  128.6880   21.0008 H       219        0    0.0000
   1319 H         115.2537  129.8012   18.8028 H       219        0    0.0000
   1320 H         115.8528  128.3661   17.9783 H       219        0    0.0000
   1321 C         114.2170  127.9641   19.3683 C.3     220        0    0.0000
   1322 C         113.0971  128.0958   18.3302 C.3     220        0    0.0000
   1323 H         114.4732  126.9072   19.5131 H       220        0    0.0000
   1324 H         113.8754  128.3415   20.3401 H       220        0    0.0000
   1325 H         112.9124  129.1543   18.1085 H       220        0    0.0000
   1326 H         113.4010  127.6247   17.3872 H       220        0    0.0000
   1327 C         111.7581  127.4399   18.8143 C.3     221        0    0.0000
   1328 C         110.6322  127.5908   17.7855 C.3     221        0    0.0000
   1329 H         111.9392  126.3777   19.0208 H       221        0    0.0000
   1330 H         111.4627  127.8998   19.7655 H       221        0    0.0000
   1331 H         110.7219  128.5541   17.2683 H       221        0    0.0000
   1332 H         110.7174  126.8119   17.0177 H       221        0    0.0000
   1333 C         109.2115  127.5000   18.4419 C.3     222        0    0.0000
   1334 C         108.0856  127.6550   17.4136 C.3     222        0    0.0000
   1335 H         109.1208  126.5354   18.9566 H       222        0    0.0000
   1336 H         109.1274  128.2770   19.2118 H       222        0    0.0000
   1337 H         108.0231  126.7573   16.7861 H       222        0    0.0000
   1338 H         107.1196  127.7498   17.9250 H       222        0    0.0000
   1339 C         108.2929  128.9041   16.4894 C.3     223        0    0.0000
   1340 C         107.2513  128.9757   15.3673 C.3     223        0    0.0000
   1341 H         108.2457  129.8111   17.1049 H       223        0    0.0000
   1342 H         109.3030  128.8649   16.0632 H       223        0    0.0000
   1343 H         106.8265  129.9856   15.3123 H       223        0    0.0000
   1344 H         107.7281  128.7813   14.3986 H       223        0    0.0000
   1345 C         106.0858  127.9476   15.5722 C.3     224        0    0.0000
   1346 C         105.0936  127.9540   14.4040 C.3     224        0    0.0000
   1347 H         106.5155  126.9457   15.6952 H       224        0    0.0000
   1348 H         105.5658  128.1845   16.5087 H       224        0    0.0000
   1349 H         105.1226  126.9904   13.8805 H       224        0    0.0000
   1350 H         104.0704  128.0775   14.7802 H       224        0    0.0000
   1351 C         105.3949  129.0975   13.3749 C.3     225        0    0.0000
   1352 C         104.7702  128.8232   12.0025 C.3     225        0    0.0000
   1353 H         105.0162  130.0449   13.7780 H       225        0    0.0000
   1354 H         106.4820  129.2085   13.2779 H       225        0    0.0000
   1355 H         104.6585  127.7426   11.8492 H       225        0    0.0000
   1356 H         103.7624  129.2539   11.9550 H       225        0    0.0000
   1357 C         105.6278  129.4138   10.8306 C.3     226        0    0.0000
   1358 C         105.0577  129.0528    9.4545 C.3     226        0    0.0000
   1359 H         105.6772  130.5039   10.9431 H       226        0    0.0000
   1360 H         106.6555  129.0408   10.9217 H       226        0    0.0000
   1361 H         104.9359  127.9657    9.3711 H       226        0    0.0000
   1362 H         104.0596  129.4918    9.3339 H       226        0    0.0000
   1363 C         105.9733  129.5500    8.2831 C.3     227        0    0.0000
   1364 C         105.4031  129.1893    6.9070 C.3     227        0    0.0000
   1365 H         106.0952  130.6371    8.3666 H       227        0    0.0000
   1366 H         106.9714  129.1109    8.4036 H       227        0    0.0000
   1367 H         106.2189  128.9625    6.2094 H       227        0    0.0000
   1368 H         104.7897  128.2826    6.9798 H       227        0    0.0000
   1369 C         104.5295  130.3433    6.3048 C.3     228        0    0.0000
   1370 C         104.0184  130.0116    4.8984 C.3     228        0    0.0000
   1371 H         103.6839  130.5343    6.9770 H       228        0    0.0000
   1372 H         105.1268  131.2632    6.2807 H       228        0    0.0000
   1373 H         104.7100  129.3212    4.4000 H       228        0    0.0000
   1374 H         103.0511  129.4978    4.9612 H       228        0    0.0000
   1375 C         103.8537  131.2919    4.0089 C.3     229        0    0.0000
   1376 C         103.2477  130.9725    2.6378 C.3     229        0    0.0000
   1377 H         103.2211  132.0132    4.5410 H       229        0    0.0000
   1378 H         104.8356  131.7652    3.8851 H       229        0    0.0000
   1379 H         103.9187  130.3122    2.0745 H       229        0    0.0000
   1380 H         102.3024  130.4296    2.7616 H       229        0    0.0000
   1381 C         102.9814  132.2642    1.7905 C.3     230        0    0.0000
   1382 C         101.5925  132.2577    1.1424 C.3     230        0    0.0000
   1383 H         103.0892  133.1417    2.4401 H       230        0    0.0000
   1384 H         103.7564  132.3467    1.0184 H       230        0    0.0000
   1385 H         101.6238  131.7117    0.1914 H       230        0    0.0000
   1386 H         100.8794  131.7282    1.7863 H       230        0    0.0000
   1387 C         101.0543  133.7057    0.8762 C.3     231        0    0.0000
   1388 C         100.5895  133.8956   -0.5719 C.3     231        0    0.0000
   1389 H         100.2260  133.9076    1.5666 H       231        0    0.0000
   1390 H         101.8460  134.4267    1.1147 H       231        0    0.0000
   1391 H         101.3096  133.4375   -1.2612 H       231        0    0.0000
   1392 H          99.6324  133.3832   -0.7300 H       231        0    0.0000
   1393 C         100.4212  135.4080   -0.9485 C.3     232        0    0.0000
   1394 C          99.8672  135.5957   -2.3651 C.3     232        0    0.0000
   1395 H          99.7543  135.8822   -0.2178 H       232        0    0.0000
   1396 H         101.3945  135.9057   -0.8562 H       232        0    0.0000
   1397 H         100.3351  134.8779   -3.0502 H       232        0    0.0000
   1398 H          98.7901  135.3877   -2.3784 H       232        0    0.0000
   1399 C         100.1086  137.0456   -2.9101 C.3     233        0    0.0000
   1400 C          99.7388  137.1782   -4.3916 C.3     233        0    0.0000
   1401 H          99.5200  137.7512   -2.3108 H       233        0    0.0000
   1402 H         101.1632  137.3085   -2.7607 H       233        0    0.0000
   1403 H         100.2109  136.3749   -4.9706 H       233        0    0.0000
   1404 H          98.6553  137.0646   -4.5205 H       233        0    0.0000
   1405 C         100.1770  138.5584   -4.9920 C.3     234        0    0.0000
   1406 C         100.0162  138.6065   -6.5154 C.3     234        0    0.0000
   1407 H          99.5806  139.3523   -4.5255 H       234        0    0.0000
   1408 H         101.2224  138.7474   -4.7179 H       234        0    0.0000
   1409 H          99.0813  138.1142   -6.8107 H       234        0    0.0000
   1410 H          99.9444  139.6478   -6.8534 H       234        0    0.0000
   1411 C         101.2090  137.9144   -7.2609 C.3     235        0    0.0000
   1412 C         101.0529  137.9709   -8.7846 C.3     235        0    0.0000
   1413 H         102.1446  138.4022   -6.9603 H       235        0    0.0000
   1414 H         101.2765  136.8713   -6.9280 H       235        0    0.0000
   1415 H         101.9734  137.6237   -9.2701 H       235        0    0.0000
   1416 H         100.2523  137.2932   -9.1060 H       235        0    0.0000
   1417 C         100.7265  139.4166   -9.2952 C.3     236        0    0.0000
   1418 C         100.2686  139.4265  -10.7578 C.3     236        0    0.0000
   1419 H          99.9489  139.8508   -8.6546 H       236        0    0.0000
   1420 H         101.6189  140.0435   -9.1762 H       236        0    0.0000
   1421 H          99.1799  139.5513  -10.8102 H       236        0    0.0000
   1422 H         100.7094  140.2821  -11.2843 H       236        0    0.0000
   1423 C         100.6633  138.1106  -11.5128 C.3     237        0    0.0000
   1424 C         100.2724  138.1514  -12.9942 C.3     237        0    0.0000
   1425 H         101.7449  137.9566  -11.4133 H       237        0    0.0000
   1426 H         100.1772  137.2601  -11.0188 H       237        0    0.0000
   1427 H         100.6194  137.2418  -13.5000 H       237        0    0.0000
   1428 H          99.1801  138.1705  -13.0947 H       237        0    0.0000
   1429 C         100.8696  139.3989  -13.7321 C.3     238        0    0.0000
   1430 C         100.5643  139.3866  -15.2340 C.3     238        0    0.0000
   1431 H         100.4638  140.3089  -13.2732 H       238        0    0.0000
   1432 H         101.9543  139.4205  -13.5689 H       238        0    0.0000
   1433 H          99.4907  139.5383  -15.4009 H       238        0    0.0000
   1434 H         101.0807  140.2179  -15.7297 H       238        0    0.0000
   1435 C         100.9970  138.0436  -15.9172 C.3     239        0    0.0000
   1436 C         100.5336  137.9583  -17.3757 C.3     239        0    0.0000
   1437 H         102.0892  137.9556  -15.8638 H       239        0    0.0000
   1438 H         100.5848  137.2054  -15.3419 H       239        0    0.0000
   1439 H         101.1507  137.2364  -17.9248 H       239        0    0.0000
   1440 H          99.5014  137.5894  -17.4214 H       239        0    0.0000
   1441 C         100.6077  139.3441  -18.1047 C.3     240        0    0.0000
   1442 C         100.2226  139.2431  -19.5847 C.3     240        0    0.0000
   1443 H          99.9437  140.0500  -17.5906 H       240        0    0.0000
   1444 H         101.6258  139.7410  -18.0070 H       240        0    0.0000
   1445 H          99.1521  139.0234  -19.6808 H       240        0    0.0000
   1446 H         100.3928  140.2050  -20.0842 H       240        0    0.0000
   1447 C         101.0357  138.1330  -20.3357 C.3     241        0    0.0000
   1448 C         100.6572  138.0382  -21.8179 C.3     241        0    0.0000
   1449 H         102.1064  138.3490  -20.2340 H       241        0    0.0000
   1450 H         100.8602  137.1700  -19.8403 H       241        0    0.0000
   1451 H         101.3515  137.3693  -22.3414 H       241        0    0.0000
   1452 H          99.6572  137.5995  -21.9234 H       241        0    0.0000
   1453 C         100.6727  139.4369  -22.5256 C.3     242        0    0.0000
   1454 C         100.2625  139.3466  -23.9996 C.3     242        0    0.0000
   1455 H          99.9965  140.1129  -21.9877 H       242        0    0.0000
   1456 H         101.6792  139.8650  -22.4408 H       242        0    0.0000
   1457 H          99.1818  139.1757  -24.0795 H       242        0    0.0000
   1458 H         100.4695  140.2972  -24.5066 H       242        0    0.0000
   1459 C         101.0132  138.1967  -24.7558 C.3     243        0    0.0000
   1460 C         100.5889  138.0941  -26.2250 C.3     243        0    0.0000
   1461 H         102.0935  138.3752  -24.6878 H       243        0    0.0000
   1462 H         100.8176  137.2481  -24.2406 H       243        0    0.0000
   1463 H         101.2566  137.4093  -26.7623 H       243        0    0.0000
   1464 H          99.5795  137.6705  -26.2963 H       243        0    0.0000
   1465 C         100.6051  139.4856  -26.9467 C.3     244        0    0.0000
   1466 C         100.2271  139.3762  -28.4279 C.3     244        0    0.0000
   1467 H          99.9109  140.1600  -26.4301 H       244        0    0.0000
   1468 H         101.6052  139.9250  -26.8452 H       244        0    0.0000
   1469 H          99.1620  139.1328  -28.5273 H       244        0    0.0000
   1470 H         100.3775  140.3416  -28.9268 H       244        0    0.0000
   1471 C         101.0669  138.2843  -29.1763 C.3     245        0    0.0000
   1472 C         100.6515  138.1371  -30.6443 C.3     245        0    0.0000
   1473 H         102.1295  138.5491  -29.1108 H       245        0    0.0000
   1474 H         100.9479  137.3270  -28.6539 H       245        0    0.0000
   1475 H         101.3887  137.5307  -31.1848 H       245        0    0.0000
   1476 H          99.6946  137.6049  -30.7129 H       245        0    0.0000
   1477 C         100.5117  139.5227  -31.3640 C.3     246        0    0.0000
   1478 C         100.1370  139.3740  -32.8427 C.3     246        0    0.0000
   1479 H          99.7524  140.1176  -30.8415 H       246        0    0.0000
   1480 H         101.4591  140.0677  -31.2690 H       246        0    0.0000
   1481 H          99.1024  139.0210  -32.9349 H       246        0    0.0000
   1482 H         100.1827  140.3496  -33.3423 H       246        0    0.0000
   1483 C         101.0807  138.3752  -33.5972 C.3     247        0    0.0000
   1484 C         100.6793  138.1931  -35.0651 C.3     247        0    0.0000
   1485 H         102.1115  138.7451  -33.5322 H       247        0    0.0000
   1486 H         101.0596  137.4086  -33.0787 H       247        0    0.0000
   1487 H         101.4673  137.6553  -35.6066 H       247        0    0.0000
   1488 H          99.7735  137.5779  -35.1338 H       247        0    0.0000
   1489 C         100.4163  139.5616  -35.7832 C.3     248        0    0.0000
   1490 C         100.0413  139.3808  -37.2583 C.3     248        0    0.0000
   1491 H          99.6146  140.0907  -35.2533 H       248        0    0.0000
   1492 H         101.3153  140.1845  -35.6973 H       248        0    0.0000
   1493 H          99.0353  138.9510  -37.3406 H       248        0    0.0000
   1494 H         100.0095  140.3556  -37.7605 H       248        0    0.0000
   1495 C         101.0508  138.4533  -38.0186 C.3     249        0    0.0000
   1496 C         100.5670  138.1020  -39.4298 C.3     249        0    0.0000
   1497 H         102.0243  138.9566  -38.0690 H       249        0    0.0000
   1498 H         101.1995  137.5376  -37.4331 H       249        0    0.0000
   1499 H         101.3904  138.2081  -40.1470 H       249        0    0.0000
   1500 H         100.2491  137.0527  -39.4682 H       249        0    0.0000
   1501 C          99.3745  139.0085  -39.8920 C.3     250        0    0.0000
   1502 C          98.9597  138.7287  -41.3407 C.3     250        0    0.0000
   1503 H          98.5240  138.8443  -39.2188 H       250        0    0.0000
   1504 H          99.6660  140.0602  -39.7806 H       250        0    0.0000
   1505 H          97.9785  139.1753  -41.5439 H       250        0    0.0000
   1506 H          99.6693  139.1990  -42.0326 H       250        0    0.0000
   1507 C          98.8908  137.1941  -41.6531 C.3     251        0    0.0000
   1508 C          98.9745  136.9029  -43.1555 C.3     251        0    0.0000
   1509 H          99.7095  136.6888  -41.1259 H       251        0    0.0000
   1510 H          97.9562  136.7914  -41.2434 H       251        0    0.0000
   1511 H          98.1558  137.4082  -43.6828 H       251        0    0.0000
   1512 H          99.9091  137.3056  -43.5653 H       251        0    0.0000
   1513 H          98.9266  135.8358  -43.3728 H       251        0    0.0000
   1514 H          19.2798    1.2287  -40.4349 H         0        0    0.0000
@<TRIPOS>BOND
     1     1     2      1
     2     1     3      1
     3     1     4      1
     4     1  1514      H
     5     2     5      1
     6     2     6      1
     7     2     7      1
     8     7     8      1
     9     7     9      1
    10     7    10      1
    11     8    11      1
    12     8    12      1
    13     8    13      1
    14    13    14      1
    15    13    15      1
    16    13    16      1
    17    14    17      1
    18    14    18      1
    19    14    19      1
    20    19    20      1
    21    19    21      1
    22    19    22      1
    23    20    23      1
    24    20    24      1
    25    20    25      1
    26    25    26      1
    27    25    27      1
    28    25    28      1
    29    26    29      1
    30    26    30      1
    31    26    31      1
    32    31    32      1
    33    31    33      1
    34    31    34      1
    35    32    35      1
    36    32    36      1
    37    32    37      1
    38    37    38      1
    39    37    39      1
    40    37    40      1
    41    38    41      1
    42    38    42      1
    43    38    43      1
    44    43    44      1
    45    43    45      1
    46    43    46      1
    47    44    47      1
    48    44    48      1
    49    44    49      1
    50    49    50      1
    51    49    51      1
    52    49    52      1
    53    50    53      1
    54    50    54      1
    55    50    55      1
    56    55    56      1
    57    55    57      1
    58    55    58      1
    59    56    59      1
    60    56    60      1
    61    56    61      1
    62    61    62      1
    63    61    63      1
    64    61    64      1
    65    62    65      1
    66    62    66      1
    67    62    67      1
    68    67    68      1
    69    67    69      1
    70    67    70      1
    71    68    71      1
    72    68    72      1
    73    68    73      1
    74    73    74      1
    75    73    75      1
    76    73    76      1
    77    74    77      1
    78    74    78      1
    79    74    79      1
    80    79    80      1
    81    79    81      1
    82    79    82      1
    83    80    83      1
    84    80    84      1
    85    80    85      1
    86    85    86      1
    87    85    87      1
    88    85    88      1
    89    86    89      1
    90    86    90      1
    91    86    91      1
    92    91    92      1
    93    91    93      1
    94    91    94      1
    95    92    95      1
    96    92    96      1
    97    92    97      1
    98    97    98      1
    99    97    99      1
   100    97   100      1
   101    98   101      1
   102    98   102      1
   103    98   103      1
   104   103   104      1
   105   103   105      1
   106   103   106      1
   107   104   107      1
   108   104   108      1
   109   104   109      1
   110   109   110      1
   111   109   111      1
   112   109   112      1
   113   110   113      1
   114   110   114      1
   115   110   115      1
   116   115   116      1
   117   115   117      1
   118   115   118      1
   119   116   119      1
   120   116   120      1
   121   116   121      1
   122   121   122      1
   123   121   123      1
   124   121   124      1
   125   122   125      1
   126   122   126      1
   127   122   127      1
   128   127   128      1
   129   127   129      1
   130   127   130      1
   131   128   131      1
   132   128   132      1
   133   128   133      1
   134   133   134      1
   135   133   135      1
   136   133   136      1
   137   134   137      1
   138   134   138      1
   139   134   139      1
   140   139   140      1
   141   139   141      1
   142   139   142      1
   143   140   143      1
   144   140   144      1
   145   140   145      1
   146   145   146      1
   147   145   147      1
   148   145   148      1
   149   146   149      1
   150   146   150      1
   151   146   151      1
   152   151   152      1
   153   151   153      1
   154   151   154      1
   155   152   155      1
   156   152   156      1
   157   152   157      1
   158   157   158      1
   159   157   159      1
   160   157   160      1
   161   158   161      1
   162   158   162      1
   163   158   163      1
   164   163   164      1
   165   163   165      1
   166   163   166      1
   167   164   167      1
   168   164   168      1
   169   164   169      1
   170   169   170      1
   171   169   171      1
   172   169   172      1
   173   170   173      1
   174   170   174      1
   175   170   175      1
   176   175   176      1
   177   175   177      1
   178   175   178      1
   179   176   179      1
   180   176   180      1
   181   176   181      1
   182   181   182      1
   183   181   183      1
   184   181   184      1
   185   182   185      1
   186   182   186      1
   187   182   187      1
   188   187   188      1
   189   187   189      1
   190   187   190      1
   191   188   191      1
   192   188   192      1
   193   188   193      1
   194   193   194      1
   195   193   195      1
   196   193   196      1
   197   194   197      1
   198   194   198      1
   199   194   199      1
   200   199   200      1
   201   199   201      1
   202   199   202      1
   203   200   203      1
   204   200   204      1
   205   200   205      1
   206   205   206      1
   207   205   207      1
   208   205   208      1
   209   206   209      1
   210   206   210      1
   211   206   211      1
   212   211   212      1
   213   211   213      1
   214   211   214      1
   215   212   215      1
   216   212   216      1
   217   212   217      1
   218   217   218      1
   219   217   219      1
   220   217   220      1
   221   218   221      1
   222   218   222      1
   223   218   223      1
   224   223   224      1
   225   223   225      1
   226   223   226      1
   227   224   227      1
   228   224   228      1
   229   224   229      1
   230   229   230      1
   231   229   231      1
   232   229   232      1
   233   230   233      1
   234   230   234      1
   235   230   235      1
   236   235   236      1
   237   235   237      1
   238   235   238      1
   239   236   239      1
   240   236   240      1
   241   236   241      1
   242   241   242      1
   243   241   243      1
   244   241   244      1
   245   242   245      1
   246   242   246      1
   247   242   247      1
   248   247   248      1
   249   247   249      1
   250   247   250      1
   251   248   251      1
   252   248   252      1
   253   248   253      1
   254   253   254      1
   255   253   255      1
   256   253   256      1
   257   254   257      1
   258   254   258      1
   259   254   259      1
   260   259   260      1
   261   259   261      1
   262   259   262      1
   263   260   263      1
   264   260   264      1
   265   260   265      1
   266   265   266      1
   267   265   267      1
   268   265   268      1
   269   266   269      1
   270   266   270      1
   271   266   271      1
   272   271   272      1
   273   271   273      1
   274   271   274      1
   275   272   275      1
   276   272   276      1
   277   272   277      1
   278   277   278      1
   279   277   279      1
   280   277   280      1
   281   278   281      1
   282   278   282      1
   283   278   283      1
   284   283   284      1
   285   283   285      1
   286   283   286      1
   287   284   287      1
   288   284   288      1
   289   284   289      1
   290   289   290      1
   291   289   291      1
   292   289   292      1
   293   290   293      1
   294   290   294      1
   295   290   295      1
   296   295   296      1
   297   295   297      1
   298   295   298      1
   299   296   299      1
   300   296   300      1
   301   296   301      1
   302   301   302      1
   303   301   303      1
   304   301   304      1
   305   302   305      1
   306   302   306      1
   307   302   307      1
   308   307   308      1
   309   307   309      1
   310   307   310      1
   311   308   311      1
   312   308   312      1
   313   308   313      1
   314   313   314      1
   315   313   315      1
   316   313   316      1
   317   314   317      1
   318   314   318      1
   319   314   319      1
   320   319   320      1
   321   319   321      1
   322   319   322      1
   323   320   323      1
   324   320   324      1
   325   320   325      1
   326   325   326      1
   327   325   327      1
   328   325   328      1
   329   326   329      1
   330   326   330      1
   331   326   331      1
   332   331   332      1
   333   331   333      1
   334   331   334      1
   335   332   335      1
   336   332   336      1
   337   332   337      1
   338   337   338      1
   339   337   339      1
   340   337   340      1
   341   338   341      1
   342   338   342      1
   343   338   343      1
   344   343   344      1
   345   343   345      1
   346   343   346      1
   347   344   347      1
   348   344   348      1
   349   344   349      1
   350   349   350      1
   351   349   351      1
   352   349   352      1
   353   350   353      1
   354   350   354      1
   355   350   355      1
   356   355   356      1
   357   355   357      1
   358   355   358      1
   359   356   359      1
   360   356   360      1
   361   356   361      1
   362   361   362      1
   363   361   363      1
   364   361   364      1
   365   362   365      1
   366   362   366      1
   367   362   367      1
   368   367   368      1
   369   367   369      1
   370   367   370      1
   371   368   371      1
   372   368   372      1
   373   368   373      1
   374   373   374      1
   375   373   375      1
   376   373   376      1
   377   374   377      1
   378   374   378      1
   379   374   379      1
   380   379   380      1
   381   379   381      1
   382   379   382      1
   383   380   383      1
   384   380   384      1
   385   380   385      1
   386   385   386      1
   387   385   387      1
   388   385   388      1
   389   386   389      1
   390   386   390      1
   391   386   391      1
   392   391   392      1
   393   391   393      1
   394   391   394      1
   395   392   395      1
   396   392   396      1
   397   392   397      1
   398   397   398      1
   399   397   399      1
   400   397   400      1
   401   398   401      1
   402   398   402      1
   403   398   403      1
   404   403   404      1
   405   403   405      1
   406   403   406      1
   407   404   407      1
   408   404   408      1
   409   404   409      1
   410   409   410      1
   411   409   411      1
   412   409   412      1
   413   410   413      1
   414   410   414      1
   415   410   415      1
   416   415   416      1
   417   415   417      1
   418   415   418      1
   419   416   419      1
   420   416   420      1
   421   416   421      1
   422   421   422      1
   423   421   423      1
   424   421   424      1
   425   422   425      1
   426   422   426      1
   427   422   427      1
   428   427   428      1
   429   427   429      1
   430   427   430      1
   431   428   431      1
   432   428   432      1
   433   428   433      1
   434   433   434      1
   435   433   435      1
   436   433   436      1
   437   434   437      1
   438   434   438      1
   439   434   439      1
   440   439   440      1
   441   439   441      1
   442   439   442      1
   443   440   443      1
   444   440   444      1
   445   440   445      1
   446   445   446      1
   447   445   447      1
   448   445   448      1
   449   446   449      1
   450   446   450      1
   451   446   451      1
   452   451   452      1
   453   451   453      1
   454   451   454      1
   455   452   455      1
   456   452   456      1
   457   452   457      1
   458   457   458      1
   459   457   459      1
   460   457   460      1
   461   458   461      1
   462   458   462      1
   463   458   463      1
   464   463   464      1
   465   463   465      1
   466   463   466      1
   467   464   467      1
   468   464   468      1
   469   464   469      1
   470   469   470      1
   471   469   471      1
   472   469   472      1
   473   470   473      1
   474   470   474      1
   475   470   475      1
   476   475   476      1
   477   475   477      1
   478   475   478      1
   479   476   479      1
   480   476   480      1
   481   476   481      1
   482   481   482      1
   483   481   483      1
   484   481   484      1
   485   482   485      1
   486   482   486      1
   487   482   487      1
   488   487   488      1
   489   487   489      1
   490   487   490      1
   491   488   491      1
   492   488   492      1
   493   488   493      1
   494   493   494      1
   495   493   495      1
   496   493   496      1
   497   494   497      1
   498   494   498      1
   499   494   499      1
   500   499   500      1
   501   499   501      1
   502   499   502      1
   503   500   503      1
   504   500   504      1
   505   500   505      1
   506   505   506      1
   507   505   507      1
   508   505   508      1
   509   506   509      1
   510   506   510      1
   511   506   511      1
   512   511   512      1
   513   511   513      1
   514   511   514      1
   515   512   515      1
   516   512   516      1
   517   512   517      1
   518   517   518      1
   519   517   519      1
   520   517   520      1
   521   518   521      1
   522   518   522      1
   523   518   523      1
   524   523   524      1
   525   523   525      1
   526   523   526      1
   527   524   527      1
   528   524   528      1
   529   524   529      1
   530   529   530      1
   531   529   531      1
   532   529   532      1
   533   530   533      1
   534   530   534      1
   535   530   535      1
   536   535   536      1
   537   535   537      1
   538   535   538      1
   539   536   539      1
   540   536   540      1
   541   536   541      1
   542   541   542      1
   543   541   543      1
   544   541   544      1
   545   542   545      1
   546   542   546      1
   547   542   547      1
   548   547   548      1
   549   547   549      1
   550   547   550      1
   551   548   551      1
   552   548   552      1
   553   548   553      1
   554   553   554      1
   555   553   555      1
   556   553   556      1
   557   554   557      1
   558   554   558      1
   559   554   559      1
   560   559   560      1
   561   559   561      1
   562   559   562      1
   563   560   563      1
   564   560   564      1
   565   560   565      1
   566   565   566      1
   567   565   567      1
   568   565   568      1
   569   566   569      1
   570   566   570      1
   571   566   571      1
   572   571   572      1
   573   571   573      1
   574   571   574      1
   575   572   575      1
   576   572   576      1
   577   572   577      1
   578   577   578      1
   579   577   579      1
   580   577   580      1
   581   578   581      1
   582   578   582      1
   583   578   583      1
   584   583   584      1
   585   583   585      1
   586   583   586      1
   587   584   587      1
   588   584   588      1
   589   584   589      1
   590   589   590      1
   591   589   591      1
   592   589   592      1
   593   590   593      1
   594   590   594      1
   595   590   595      1
   596   595   596      1
   597   595   597      1
   598   595   598      1
   599   596   599      1
   600   596   600      1
   601   596   601      1
   602   601   602      1
   603   601   603      1
   604   601   604      1
   605   602   605      1
   606   602   606      1
   607   602   607      1
   608   607   608      1
   609   607   609      1
   610   607   610      1
   611   608   611      1
   612   608   612      1
   613   608   613      1
   614   613   614      1
   615   613   615      1
   616   613   616      1
   617   614   617      1
   618   614   618      1
   619   614   619      1
   620   619   620      1
   621   619   621      1
   622   619   622      1
   623   620   623      1
   624   620   624      1
   625   620   625      1
   626   625   626      1
   627   625   627      1
   628   625   628      1
   629   626   629      1
   630   626   630      1
   631   626   631      1
   632   631   632      1
   633   631   633      1
   634   631   634      1
   635   632   635      1
   636   632   636      1
   637   632   637      1
   638   637   638      1
   639   637   639      1
   640   637   640      1
   641   638   641      1
   642   638   642      1
   643   638   643      1
   644   643   644      1
   645   643   645      1
   646   643   646      1
   647   644   647      1
   648   644   648      1
   649   644   649      1
   650   649   650      1
   651   649   651      1
   652   649   652      1
   653   650   653      1
   654   650   654      1
   655   650   655      1
   656   655   656      1
   657   655   657      1
   658   655   658      1
   659   656   659      1
   660   656   660      1
   661   656   661      1
   662   661   662      1
   663   661   663      1
   664   661   664      1
   665   662   665      1
   666   662   666      1
   667   662   667      1
   668   667   668      1
   669   667   669      1
   670   667   670      1
   671   668   671      1
   672   668   672      1
   673   668   673      1
   674   673   674      1
   675   673   675      1
   676   673   676      1
   677   674   677      1
   678   674   678      1
   679   674   679      1
   680   679   680      1
   681   679   681      1
   682   679   682      1
   683   680   683      1
   684   680   684      1
   685   680   685      1
   686   685   686      1
   687   685   687      1
   688   685   688      1
   689   686   689      1
   690   686   690      1
   691   686   691      1
   692   691   692      1
   693   691   693      1
   694   691   694      1
   695   692   695      1
   696   692   696      1
   697   692   697      1
   698   697   698      1
   699   697   699      1
   700   697   700      1
   701   698   701      1
   702   698   702      1
   703   698   703      1
   704   703   704      1
   705   703   705      1
   706   703   706      1
   707   704   707      1
   708   704   708      1
   709   704   709      1
   710   709   710      1
   711   709   711      1
   712   709   712      1
   713   710   713      1
   714   710   714      1
   715   710   715      1
   716   715   716      1
   717   715   717      1
   718   715   718      1
   719   716   719      1
   720   716   720      1
   721   716   721      1
   722   721   722      1
   723   721   723      1
   724   721   724      1
   725   722   725      1
   726   722   726      1
   727   722   727      1
   728   727   728      1
   729   727   729      1
   730   727   730      1
   731   728   731      1
   732   728   732      1
   733   728   733      1
   734   733   734      1
   735   733   735      1
   736   733   736      1
   737   734   737      1
   738   734   738      1
   739   734   739      1
   740   739   740      1
   741   739   741      1
   742   739   742      1
   743   740   743      1
   744   740   744      1
   745   740   745      1
   746   745   746      1
   747   745   747      1
   748   745   748      1
   749   746   749      1
   750   746   750      1
   751   746   751      1
   752   751   752      1
   753   751   753      1
   754   751   754      1
   755   752   755      1
   756   752   756      1
   757   752   757      1
   758   757   758      1
   759   757   759      1
   760   757   760      1
   761   758   761      1
   762   758   762      1
   763   758   763      1
   764   763   764      1
   765   763   765      1
   766   763   766      1
   767   764   767      1
   768   764   768      1
   769   764   769      1
   770   769   770      1
   771   769   771      1
   772   769   772      1
   773   770   773      1
   774   770   774      1
   775   770   775      1
   776   775   776      1
   777   775   777      1
   778   775   778      1
   779   776   779      1
   780   776   780      1
   781   776   781      1
   782   781   782      1
   783   781   783      1
   784   781   784      1
   785   782   785      1
   786   782   786      1
   787   782   787      1
   788   787   788      1
   789   787   789      1
   790   787   790      1
   791   788   791      1
   792   788   792      1
   793   788   793      1
   794   793   794      1
   795   793   795      1
   796   793   796      1
   797   794   797      1
   798   794   798      1
   799   794   799      1
   800   799   800      1
   801   799   801      1
   802   799   802      1
   803   800   803      1
   804   800   804      1
   805   800   805      1
   806   805   806      1
   807   805   807      1
   808   805   808      1
   809   806   809      1
   810   806   810      1
   811   806   811      1
   812   811   812      1
   813   811   813      1
   814   811   814      1
   815   812   815      1
   816   812   816      1
   817   812   817      1
   818   817   818      1
   819   817   819      1
   820   817   820      1
   821   818   821      1
   822   818   822      1
   823   818   823      1
   824   823   824      1
   825   823   825      1
   826   823   826      1
   827   824   827      1
   828   824   828      1
   829   824   829      1
   830   829   830      1
   831   829   831      1
   832   829   832      1
   833   830   833      1
   834   830   834      1
   835   830   835      1
   836   835   836      1
   837   835   837      1
   838   835   838      1
   839   836   839      1
   840   836   840      1
   841   836   841      1
   842   841   842      1
   843   841   843      1
   844   841   844      1
   845   842   845      1
   846   842   846      1
   847   842   847      1
   848   847   848      1
   849   847   849      1
   850   847   850      1
   851   848   851      1
   852   848   852      1
   853   848   853      1
   854   853   854      1
   855   853   855      1
   856   853   856      1
   857   854   857      1
   858   854   858      1
   859   854   859      1
   860   859   860      1
   861   859   861      1
   862   859   862      1
   863   860   863      1
   864   860   864      1
   865   860   865      1
   866   865   866      1
   867   865   867      1
   868   865   868      1
   869   866   869      1
   870   866   870      1
   871   866   871      1
   872   871   872      1
   873   871   873      1
   874   871   874      1
   875   872   875      1
   876   872   876      1
   877   872   877      1
   878   877   878      1
   879   877   879      1
   880   877   880      1
   881   878   881      1
   882   878   882      1
   883   878   883      1
   884   883   884      1
   885   883   885      1
   886   883   886      1
   887   884   887      1
   888   884   888      1
   889   884   889      1
   890   889   890      1
   891   889   891      1
   892   889   892      1
   893   890   893      1
   894   890   894      1
   895   890   895      1
   896   895   896      1
   897   895   897      1
   898   895   898      1
   899   896   899      1
   900   896   900      1
   901   896   901      1
   902   901   902      1
   903   901   903      1
   904   901   904      1
   905   902   905      1
   906   902   906      1
   907   902   907      1
   908   907   908      1
   909   907   909      1
   910   907   910      1
   911   908   911      1
   912   908   912      1
   913   908   913      1
   914   913   914      1
   915   913   915      1
   916   913   916      1
   917   914   917      1
   918   914   918      1
   919   914   919      1
   920   919   920      1
   921   919   921      1
   922   919   922      1
   923   920   923      1
   924   920   924      1
   925   920   925      1
   926   925   926      1
   927   925   927      1
   928   925   928      1
   929   926   929      1
   930   926   930      1
   931   926   931      1
   932   931   932      1
   933   931   933      1
   934   931   934      1
   935   932   935      1
   936   932   936      1
   937   932   937      1
   938   937   938      1
   939   937   939      1
   940   937   940      1
   941   938   941      1
   942   938   942      1
   943   938   943      1
   944   943   944      1
   945   943   945      1
   946   943   946      1
   947   944   947      1
   948   944   948      1
   949   944   949      1
   950   949   950      1
   951   949   951      1
   952   949   952      1
   953   950   953      1
   954   950   954      1
   955   950   955      1
   956   955   956      1
   957   955   957      1
   958   955   958      1
   959   956   959      1
   960   956   960      1
   961   956   961      1
   962   961   962      1
   963   961   963      1
   964   961   964      1
   965   962   965      1
   966   962   966      1
   967   962   967      1
   968   967   968      1
   969   967   969      1
   970   967   970      1
   971   968   971      1
   972   968   972      1
   973   968   973      1
   974   973   974      1
   975   973   975      1
   976   973   976      1
   977   974   977      1
   978   974   978      1
   979   974   979      1
   980   979   980      1
   981   979   981      1
   982   979   982      1
   983   980   983      1
   984   980   984      1
   985   980   985      1
   986   985   986      1
   987   985   987      1
   988   985   988      1
   989   986   989      1
   990   986   990      1
   991   986   991      1
   992   991   992      1
   993   991   993      1
   994   991   994      1
   995   992   995      1
   996   992   996      1
   997   992   997      1
   998   997   998      1
   999   997   999      1
  1000   997  1000      1
  1001   998  1001      1
  1002   998  1002      1
  1003   998  1003      1
  1004  1003  1004      1
  1005  1003  1005      1
  1006  1003  1006      1
  1007  1004  1007      1
  1008  1004  1008      1
  1009  1004  1009      1
  1010  1009  1010      1
  1011  1009  1011      1
  1012  1009  1012      1
  1013  1010  1013      1
  1014  1010  1014      1
  1015  1010  1015      1
  1016  1015  1016      1
  1017  1015  1017      1
  1018  1015  1018      1
  1019  1016  1019      1
  1020  1016  1020      1
  1021  1016  1021      1
  1022  1021  1022      1
  1023  1021  1023      1
  1024  1021  1024      1
  1025  1022  1025      1
  1026  1022  1026      1
  1027  1022  1027      1
  1028  1027  1028      1
  1029  1027  1029      1
  1030  1027  1030      1
  1031  1028  1031      1
  1032  1028  1032      1
  1033  1028  1033      1
  1034  1033  1034      1
  1035  1033  1035      1
  1036  1033  1036      1
  1037  1034  1037      1
  1038  1034  1038      1
  1039  1034  1039      1
  1040  1039  1040      1
  1041  1039  1041      1
  1042  1039  1042      1
  1043  1040  1043      1
  1044  1040  1044      1
  1045  1040  1045      1
  1046  1045  1046      1
  1047  1045  1047      1
  1048  1045  1048      1
  1049  1046  1049      1
  1050  1046  1050      1
  1051  1046  1051      1
  1052  1051  1052      1
  1053  1051  1053      1
  1054  1051  1054      1
  1055  1052  1055      1
  1056  1052  1056      1
  1057  1052  1057      1
  1058  1057  1058      1
  1059  1057  1059      1
  1060  1057  1060      1
  1061  1058  1061      1
  1062  1058  1062      1
  1063  1058  1063      1
  1064  1063  1064      1
  1065  1063  1065      1
  1066  1063  1066      1
  1067  1064  1067      1
  1068  1064  1068      1
  1069  1064  1069      1
  1070  1069  1070      1
  1071  1069  1071      1
  1072  1069  1072      1
  1073  1070  1073      1
  1074  1070  1074      1
  1075  1070  1075      1
  1076  1075  1076      1
  1077  1075  1077      1
  1078  1075  1078      1
  1079  1076  1079      1
  1080  1076  1080      1
  1081  1076  1081      1
  1082  1081  1082      1
  1083  1081  1083      1
  1084  1081  1084      1
  1085  1082  1085      1
  1086  1082  1086      1
  1087  1082  1087      1
  1088  1087  1088      1
  1089  1087  1089      1
  1090  1087  1090      1
  1091  1088  1091      1
  1092  1088  1092      1
  1093  1088  1093      1
  1094  1093  1094      1
  1095  1093  1095      1
  1096  1093  1096      1
  1097  1094  1097      1
  1098  1094  1098      1
  1099  1094  1099      1
  1100  1099  1100      1
  1101  1099  1101      1
  1102  1099  1102      1
  1103  1100  1103      1
  1104  1100  1104      1
  1105  1100  1105      1
  1106  1105  1106      1
  1107  1105  1107      1
  1108  1105  1108      1
  1109  1106  1109      1
  1110  1106  1110      1
  1111  1106  1111      1
  1112  1111  1112      1
  1113  1111  1113      1
  1114  1111  1114      1
  1115  1112  1115      1
  1116  1112  1116      1
  1117  1112  1117      1
  1118  1117  1118      1
  1119  1117  1119      1
  1120  1117  1120      1
  1121  1118  1121      1
  1122  1118  1122      1
  1123  1118  1123      1
  1124  1123  1124      1
  1125  1123  1125      1
  1126  1123  1126      1
  1127  1124  1127      1
  1128  1124  1128      1
  1129  1124  1129      1
  1130  1129  1130      1
  1131  1129  1131      1
  1132  1129  1132      1
  1133  1130  1133      1
  1134  1130  1134      1
  1135  1130  1135      1
  1136  1135  1136      1
  1137  1135  1137      1
  1138  1135  1138      1
  1139  1136  1139      1
  1140  1136  1140      1
  1141  1136  1141      1
  1142  1141  1142      1
  1143  1141  1143      1
  1144  1141  1144      1
  1145  1142  1145      1
  1146  1142  1146      1
  1147  1142  1147      1
  1148  1147  1148      1
  1149  1147  1149      1
  1150  1147  1150      1
  1151  1148  1151      1
  1152  1148  1152      1
  1153  1148  1153      1
  1154  1153  1154      1
  1155  1153  1155      1
  1156  1153  1156      1
  1157  1154  1157      1
  1158  1154  1158      1
  1159  1154  1159      1
  1160  1159  1160      1
  1161  1159  1161      1
  1162  1159  1162      1
  1163  1160  1163      1
  1164  1160  1164      1
  1165  1160  1165      1
  1166  1165  1166      1
  1167  1165  1167      1
  1168  1165  1168      1
  1169  1166  1169      1
  1170  1166  1170      1
  1171  1166  1171      1
  1172  1171  1172      1
  1173  1171  1173      1
  1174  1171  1174      1
  1175  1172  1175      1
  1176  1172  1176      1
  1177  1172  1177      1
  1178  1177  1178      1
  1179  1177  1179      1
  1180  1177  1180      1
  1181  1178  1181      1
  1182  1178  1182      1
  1183  1178  1183      1
  1184  1183  1184      1
  1185  1183  1185      1
  1186  1183  1186      1
  1187  1184  1187      1
  1188  1184  1188      1
  1189  1184  1189      1
  1190  1189  1190      1
  1191  1189  1191      1
  1192  1189  1192      1
  1193  1190  1193      1
  1194  1190  1194      1
  1195  1190  1195      1
  1196  1195  1196      1
  1197  1195  1197      1
  1198  1195  1198      1
  1199  1196  1199      1
  1200  1196  1200      1
  1201  1196  1201      1
  1202  1201  1202      1
  1203  1201  1203      1
  1204  1201  1204      1
  1205  1202  1205      1
  1206  1202  1206      1
  1207  1202  1207      1
  1208  1207  1208      1
  1209  1207  1209      1
  1210  1207  1210      1
  1211  1208  1211      1
  1212  1208  1212      1
  1213  1208  1213      1
  1214  1213  1214      1
  1215  1213  1215      1
  1216  1213  1216      1
  1217  1214  1217      1
  1218  1214  1218      1
  1219  1214  1219      1
  1220  1219  1220      1
  1221  1219  1221      1
  1222  1219  1222      1
  1223  1220  1223      1
  1224  1220  1224      1
  1225  1220  1225      1
  1226  1225  1226      1
  1227  1225  1227      1
  1228  1225  1228      1
  1229  1226  1229      1
  1230  1226  1230      1
  1231  1226  1231      1
  1232  1231  1232      1
  1233  1231  1233      1
  1234  1231  1234      1
  1235  1232  1235      1
  1236  1232  1236      1
  1237  1232  1237      1
  1238  1237  1238      1
  1239  1237  1239      1
  1240  1237  1240      1
  1241  1238  1241      1
  1242  1238  1242      1
  1243  1238  1243      1
  1244  1243  1244      1
  1245  1243  1245      1
  1246  1243  1246      1
  1247  1244  1247      1
  1248  1244  1248      1
  1249  1244  1249      1
  1250  1249  1250      1
  1251  1249  1251      1
  1252  1249  1252      1
  1253  1250  1253      1
  1254  1250  1254      1
  1255  1250  1255      1
  1256  1255  1256      1
  1257  1255  1257      1
  1258  1255  1258      1
  1259  1256  1259      1
  1260  1256  1260      1
  1261  1256  1261      1
  1262  1261  1262      1
  1263  1261  1263      1
  1264  1261  1264      1
  1265  1262  1265      1
  1266  1262  1266      1
  1267  1262  1267      1
  1268  1267  1268      1
  1269  1267  1269      1
  1270  1267  1270      1
  1271  1268  1271      1
  1272  1268  1272      1
  1273  1268  1273      1
  1274  1273  1274      1
  1275  1273  1275      1
  1276  1273  1276      1
  1277  1274  1277      1
  1278  1274  1278      1
  1279  1274  1279      1
  1280  1279  1280      1
  1281  1279  1281      1
  1282  1279  1282      1
  1283  1280  1283      1
  1284  1280  1284      1
  1285  1280  1285      1
  1286  1285  1286      1
  1287  1285  1287      1
  1288  1285  1288      1
  1289  1286  1289      1
  1290  1286  1290      1
  1291  1286  1291      1
  1292  1291  1292      1
  1293  1291  1293      1
  1294  1291  1294      1
  1295  1292  1295      1
  1296  1292  1296      1
  1297  1292  1297      1
  1298  1297  1298      1
  1299  1297  1299      1
  1300  1297  1300      1
  1301  1298  1301      1
  1302  1298  1302      1
  1303  1298  1303      1
  1304  1303  1304      1
  1305  1303  1305      1
  1306  1303  1306      1
  1307  1304  1307      1
  1308  1304  1308      1
  1309  1304  1309      1
  1310  1309  1310      1
  1311  1309  1311      1
  1312  1309  1312      1
  1313  1310  1313      1
  1314  1310  1314      1
  1315  1310  1315      1
  1316  1315  1316      1
  1317  1315  1317      1
  1318  1315  1318      1
  1319  1316  1319      1
  1320  1316  1320      1
  1321  1316  1321      1
  1322  1321  1322      1
  1323  1321  1323      1
  1324  1321  1324      1
  1325  1322  1325      1
  1326  1322  1326      1
  1327  1322  1327      1
  1328  1327  1328      1
  1329  1327  1329      1
  1330  1327  1330      1
  1331  1328  1331      1
  1332  1328  1332      1
  1333  1328  1333      1
  1334  1333  1334      1
  1335  1333  1335      1
  1336  1333  1336      1
  1337  1334  1337      1
  1338  1334  1338      1
  1339  1334  1339      1
  1340  1339  1340      1
  1341  1339  1341      1
  1342  1339  1342      1
  1343  1340  1343      1
  1344  1340  1344      1
  1345  1340  1345      1
  1346  1345  1346      1
  1347  1345  1347      1
  1348  1345  1348      1
  1349  1346  1349      1
  1350  1346  1350      1
  1351  1346  1351      1
  1352  1351  1352      1
  1353  1351  1353      1
  1354  1351  1354      1
  1355  1352  1355      1
  1356  1352  1356      1
  1357  1352  1357      1
  1358  1357  1358      1
  1359  1357  1359      1
  1360  1357  1360      1
  1361  1358  1361      1
  1362  1358  1362      1
  1363  1358  1363      1
  1364  1363  1364      1
  1365  1363  1365      1
  1366  1363  1366      1
  1367  1364  1367      1
  1368  1364  1368      1
  1369  1364  1369      1
  1370  1369  1370      1
  1371  1369  1371      1
  1372  1369  1372      1
  1373  1370  1373      1
  1374  1370  1374      1
  1375  1370  1375      1
  1376  1375  1376      1
  1377  1375  1377      1
  1378  1375  1378      1
  1379  1376  1379      1
  1380  1376  1380      1
  1381  1376  1381      1
  1382  1381  1382      1
  1383  1381  1383      1
  1384  1381  1384      1
  1385  1382  1385      1
  1386  1382  1386      1
  1387  1382  1387      1
  1388  1387  1388      1
  1389  1387  1389      1
  1390  1387  1390      1
  1391  1388  1391      1
  1392  1388  1392      1
  1393  1388  1393      1
  1394  1393  1394      1
  1395  1393  1395      1
  1396  1393  1396      1
  1397  1394  1397      1
  1398  1394  1398      1
  1399  1394  1399      1
  1400  1399  1400      1
  1401  1399  1401      1
  1402  1399  1402      1
  1403  1400  1403      1
  1404  1400  1404      1
  1405  1400  1405      1
  1406  1405  1406      1
  1407  1405  1407      1
  1408  1405  1408      1
  1409  1406  1409      1
  1410  1406  1410      1
  1411  1406  1411      1
  1412  1411  1412      1
  1413  1411  1413      1
  1414  1411  1414      1
  1415  1412  1415      1
  1416  1412  1416      1
  1417  1412  1417      1
  1418  1417  1418      1
  1419  1417  1419      1
  1420  1417  1420      1
  1421  1418  1421      1
  1422  1418  1422      1
  1423  1418  1423      1
  1424  1423  1424      1
  1425  1423  1425      1
  1426  1423  1426      1
  1427  1424  1427      1
  1428  1424  1428      1
  1429  1424  1429      1
  1430  1429  1430      1
  1431  1429  1431      1
  1432  1429  1432      1
  1433  1430  1433      1
  1434  1430  1434      1
  1435  1430  1435      1
  1436  1435  1436      1
  1437  1435  1437      1
  1438  1435  1438      1
  1439  1436  1439      1
  1440  1436  1440      1
  1441  1436  1441      1
  1442  1441  1442      1
  1443  1441  1443      1
  1444  1441  1444      1
  1445  1442  1445      1
  1446  1442  1446      1
  1447  1442  1447      1
  1448  1447  1448      1
  1449  1447  1449      1
  1450  1447  1450      1
  1451  1448  1451      1
  1452  1448  1452      1
  1453  1448  1453      1
  1454  1453  1454      1
  1455  1453  1455      1
  1456  1453  1456      1
  1457  1454  1457      1
  1458  1454  1458      1
  1459  1454  1459      1
  1460  1459  1460      1
  1461  1459  1461      1
  1462  1459  1462      1
  1463  1460  1463      1
  1464  1460  1464      1
  1465  1460  1465      1
  1466  1465  1466      1
  1467  1465  1467      1
  1468  1465  1468      1
  1469  1466  1469      1
  1470  1466  1470      1
  1471  1466  1471      1
  1472  1471  1472      1
  1473  1471  1473      1
  1474  1471  1474      1
  1475  1472  1475      1
  1476  1472  1476      1
  1477  1472  1477      1
  1478  1477  1478      1
  1479  1477  1479      1
  1480  1477  1480      1
  1481  1478  1481      1
  1482  1478  1482      1
  1483  1478  1483      1
  1484  1483  1484      1
  1485  1483  1485      1
  1486  1483  1486      1
  1487  1484  1487      1
  1488  1484  1488      1
  1489  1484  1489      1
  1490  1489  1490      1
  1491  1489  1491      1
  1492  1489  1492      1
  1493  1490  1493      1
  1494  1490  1494      1
  1495  1490  1495      1
  1496  1495  1496      1
  1497  1495  1497      1
  1498  1495  1498      1
  1499  1496  1499      1
  1500  1496  1500      1
  1501  1496  1501      1
  1502  1501  1502      1
  1503  1501  1503      1
  1504  1501  1504      1
  1505  1502  1505      1
  1506  1502  1506      1
  1507  1502  1507      1
  1508  1507  1508      1
  1509  1507  1509      1
  1510  1507  1510      1
  1511  1508  1511      1
  1512  1508  1512      1
  1513  1508  1513      H
