###
### Created by PolyChef-cpp17 on Thu Feb 27 19:40:29 2025
###

@<TRIPOS>MOLECULE
NO_INFO
308 307 1 0 0
SMALL
USER_CHARGES


@<TRIPOS>ATOM
      1 C          69.2798  122.4687  120.6551 C.3       0        0    0.0000
      2 C          68.4513  121.3175  120.0742 C.3       0        0    0.0000
      3 H          68.8875  123.4302  120.3014 H         0        0    0.0000
      4 H          70.3162  122.4021  120.3014 H         0        0    0.0000
      5 H          68.4067  120.4875  120.7902 H         0        0    0.0000
      6 H          67.4177  121.6450  119.9068 H         0        0    0.0000
      7 C          69.0385  120.7866  118.7211 C.3       1        0    0.0000
      8 C          69.6341  121.9103  117.8658 C.3       1        0    0.0000
      9 H          69.8056  120.0334  118.9399 H         1        0    0.0000
     10 H          68.2425  120.2738  118.1672 H         1        0    0.0000
     11 H          68.9413  122.7599  117.8255 H         1        0    0.0000
     12 H          70.5602  122.2804  118.3229 H         1        0    0.0000
     13 C          69.9450  121.4419  116.4024 C.3       2        0    0.0000
     14 C          69.8830  122.5973  115.3972 C.3       2        0    0.0000
     15 H          70.9396  120.9794  116.3829 H         2        0    0.0000
     16 H          69.2284  120.6601  116.1216 H         2        0    0.0000
     17 H          68.9603  123.1729  115.5422 H         2        0    0.0000
     18 H          70.7164  123.2898  115.5682 H         2        0    0.0000
     19 C          69.9383  122.0968  113.9127 C.3       3        0    0.0000
     20 C          69.8043  123.2456  112.9070 C.3       3        0    0.0000
     21 H          70.8851  121.5660  113.7535 H         3        0    0.0000
     22 H          69.1365  121.3645  113.7563 H         3        0    0.0000
     23 H          68.8640  123.7850  113.0752 H         3        0    0.0000
     24 H          70.6142  123.9708  113.0543 H         3        0    0.0000
     25 C          69.8399  122.7429  111.4226 C.3       4        0    0.0000
     26 C          69.9824  123.8954  110.4223 C.3       4        0    0.0000
     27 H          70.6739  122.0395  111.3074 H         4        0    0.0000
     28 H          68.9215  122.1788  111.2182 H         4        0    0.0000
     29 H          69.1263  124.5760  110.5082 H         4        0    0.0000
     30 H          70.8782  124.4852  110.6531 H         4        0    0.0000
     31 C          70.0786  123.3887  108.9420 C.3       5        0    0.0000
     32 C          69.0997  124.1167  108.0141 C.3       5        0    0.0000
     33 H          71.1073  123.5274  108.5869 H         5        0    0.0000
     34 H          69.8819  122.3096  108.9241 H         5        0    0.0000
     35 H          68.1291  124.2371  108.5112 H         5        0    0.0000
     36 H          69.4690  125.1264  107.7954 H         5        0    0.0000
     37 C          68.8838  123.3537  106.6619 C.3       6        0    0.0000
     38 C          69.3538  124.1700  105.4528 C.3       6        0    0.0000
     39 H          69.4233  122.3995  106.7042 H         6        0    0.0000
     40 H          67.8191  123.1093  106.5599 H         6        0    0.0000
     41 H          68.5506  124.8356  105.1132 H         6        0    0.0000
     42 H          70.1963  124.8125  105.7373 H         6        0    0.0000
     43 C          69.7949  123.2587  104.2560 C.3       7        0    0.0000
     44 C          69.3193  123.8039  102.9048 C.3       7        0    0.0000
     45 H          70.8884  123.1713  104.2625 H         7        0    0.0000
     46 H          69.3971  122.2488  104.4152 H         7        0    0.0000
     47 H          68.2571  124.0726  102.9604 H         7        0    0.0000
     48 H          69.8643  124.7233  102.6572 H         7        0    0.0000
     49 C          69.5188  122.7700  101.7435 C.3       8        0    0.0000
     50 C          69.3766  123.4152  100.3606 C.3       8        0    0.0000
     51 H          70.5104  122.3116  101.8446 H         8        0    0.0000
     52 H          68.7852  121.9625  101.8591 H         8        0    0.0000
     53 H          68.3610  123.8099  100.2323 H         8        0    0.0000
     54 H          70.0599  124.2688  100.2717 H         8        0    0.0000
     55 C          69.6764  122.4049   99.2000 C.3       9        0    0.0000
     56 C          69.4937  123.0387   97.8165 C.3       9        0    0.0000
     57 H          70.7026  122.0333   99.3110 H         9        0    0.0000
     58 H          69.0138  121.5371   99.3066 H         9        0    0.0000
     59 H          68.4705  123.4196   97.7094 H         9        0    0.0000
     60 H          70.1638  123.9003   97.7060 H         9        0    0.0000
     61 C          69.7794  122.0243   96.6559 C.3      10        0    0.0000
     62 C          69.5959  122.6579   95.2725 C.3      10        0    0.0000
     63 H          70.8028  121.6439   96.7627 H        10        0    0.0000
     64 H          69.1097  121.1625   96.7668 H        10        0    0.0000
     65 H          68.5721  123.0372   95.1653 H        10        0    0.0000
     66 H          70.2646  123.5205   95.1621 H        10        0    0.0000
     67 C          69.8832  121.6440   94.1119 C.3      11        0    0.0000
     68 C          69.7063  122.2794   92.7284 C.3      11        0    0.0000
     69 H          70.9052  121.2609   94.2220 H        11        0    0.0000
     70 H          69.2110  120.7837   94.2194 H        11        0    0.0000
     71 H          68.6838  122.6614   92.6179 H        11        0    0.0000
     72 H          70.3776  123.1405   92.6213 H        11        0    0.0000
     73 C          69.9952  121.2660   91.5678 C.3      12        0    0.0000
     74 C          69.8323  121.9053   90.1845 C.3      12        0    0.0000
     75 H          71.0140  120.8760   91.6844 H        12        0    0.0000
     76 H          69.3167  120.4098   91.6688 H        12        0    0.0000
     77 H          68.8214  122.3177   90.0773 H        12        0    0.0000
     78 H          70.5288  122.7458   90.0741 H        12        0    0.0000
     79 C          70.0865  120.8828   89.0237 C.3      13        0    0.0000
     80 C          69.9296  121.5236   87.6403 C.3      13        0    0.0000
     81 H          71.0959  120.4671   89.1334 H        13        0    0.0000
     82 H          69.3872  120.0444   89.1315 H        13        0    0.0000
     83 H          68.9251  121.9521   87.5361 H        13        0    0.0000
     84 H          70.6391  122.3526   87.5271 H        13        0    0.0000
     85 C          70.1636  120.4962   86.4797 C.3      14        0    0.0000
     86 C          70.0129  121.1384   85.0963 C.3      14        0    0.0000
     87 H          71.1663  120.0642   86.5866 H        14        0    0.0000
     88 H          69.4510  119.6694   86.5902 H        14        0    0.0000
     89 H          69.0724  121.7008   85.0430 H        14        0    0.0000
     90 H          70.8215  121.8601   84.9265 H        14        0    0.0000
     91 C          70.0328  120.0768   83.9430 C.3      15        0    0.0000
     92 C          69.9118  120.7215   82.5578 C.3      15        0    0.0000
     93 H          70.9636  119.5000   84.0094 H        15        0    0.0000
     94 H          69.2108  119.3676   84.1010 H        15        0    0.0000
     95 H          68.8681  120.6959   82.2209 H        15        0    0.0000
     96 H          70.2006  121.7787   82.6085 H        15        0    0.0000
     97 C          70.8058  120.0041   81.4884 C.3      16        0    0.0000
     98 C          70.6904  120.6534   80.1049 C.3      16        0    0.0000
     99 H          71.8488  120.0251   81.8280 H        16        0    0.0000
    100 H          70.5134  118.9482   81.4340 H        16        0    0.0000
    101 H          69.6956  120.4646   79.6826 H        16        0    0.0000
    102 H          70.7948  121.7422   80.1904 H        16        0    0.0000
    103 C          71.7734  120.1189   79.1055 C.3      17        0    0.0000
    104 C          71.9333  121.0275   77.8817 C.3      17        0    0.0000
    105 H          72.7299  120.0295   79.6353 H        17        0    0.0000
    106 H          71.4930  119.1067   78.7885 H        17        0    0.0000
    107 H          71.0210  121.0027   77.2729 H        17        0    0.0000
    108 H          72.0706  122.0680   78.2011 H        17        0    0.0000
    109 C          73.1500  120.6092   76.9861 C.3      18        0    0.0000
    110 C          73.9832  121.8150   76.5380 C.3      18        0    0.0000
    111 H          73.7775  119.9062   77.5479 H        18        0    0.0000
    112 H          72.7741  120.0654   76.1105 H        18        0    0.0000
    113 H          73.5847  122.2196   75.5993 H        18        0    0.0000
    114 H          73.9131  122.6180   77.2821 H        18        0    0.0000
    115 C          75.4933  121.4493   76.3298 C.3      19        0    0.0000
    116 C          75.9848  121.7921   74.9192 C.3      19        0    0.0000
    117 H          76.0928  121.9837   77.0772 H        19        0    0.0000
    118 H          75.6279  120.3782   76.5252 H        19        0    0.0000
    119 H          75.2263  121.5115   74.1780 H        19        0    0.0000
    120 H          76.1319  122.8751   74.8249 H        19        0    0.0000
    121 C          77.3290  121.0670   74.5659 C.3      20        0    0.0000
    122 C          78.4129  122.0464   74.1023 C.3      20        0    0.0000
    123 H          77.6745  120.5134   75.4477 H        20        0    0.0000
    124 H          77.1345  120.3232   73.7833 H        20        0    0.0000
    125 H          78.2288  122.3471   73.0635 H        20        0    0.0000
    126 H          78.3763  122.9615   74.7064 H        20        0    0.0000
    127 C          79.8515  121.4318   74.2031 C.3      21        0    0.0000
    128 C          80.5053  121.2551   72.8282 C.3      21        0    0.0000
    129 H          80.4706  122.0823   74.8332 H        21        0    0.0000
    130 H          79.7875  120.4643   74.7164 H        21        0    0.0000
    131 H          79.7373  121.2462   72.0449 H        21        0    0.0000
    132 H          81.1647  122.1051   72.6132 H        21        0    0.0000
    133 C          81.3398  119.9315   72.7328 C.3      22        0    0.0000
    134 C          80.9092  119.0573   71.5498 C.3      22        0    0.0000
    135 H          82.4024  120.1890   72.6431 H        22        0    0.0000
    136 H          81.2287  119.3750   73.6718 H        22        0    0.0000
    137 H          79.8975  119.3330   71.2270 H        22        0    0.0000
    138 H          81.5716  119.2312   70.6929 H        22        0    0.0000
    139 C          80.9285  117.5298   71.9017 C.3      23        0    0.0000
    140 C          79.9048  116.7328   71.0858 C.3      23        0    0.0000
    141 H          81.9380  117.1388   71.7238 H        23        0    0.0000
    142 H          80.7293  117.4115   72.9740 H        23        0    0.0000
    143 H          78.9083  117.1786   71.1941 H        23        0    0.0000
    144 H          80.1562  116.7786   70.0190 H        23        0    0.0000
    145 C          79.8362  115.2294   71.5247 C.3      24        0    0.0000
    146 C          78.8655  114.4160   70.6613 C.3      24        0    0.0000
    147 H          80.8431  114.7978   71.4669 H        24        0    0.0000
    148 H          79.5330  115.1819   72.5779 H        24        0    0.0000
    149 H          77.9499  114.9924   70.4799 H        24        0    0.0000
    150 H          79.3121  114.2167   69.6793 H        24        0    0.0000
    151 C          78.4793  113.0505   71.3273 C.3      25        0    0.0000
    152 C          77.4616  112.2647   70.4932 C.3      25        0    0.0000
    153 H          79.3902  112.4554   71.4678 H        25        0    0.0000
    154 H          78.0741  113.2471   72.3277 H        25        0    0.0000
    155 H          77.9322  111.8995   69.5719 H        25        0    0.0000
    156 H          77.1245  111.3797   71.0469 H        25        0    0.0000
    157 C          76.2106  113.1296   70.1130 C.3      26        0    0.0000
    158 C          75.3073  112.4275   69.0932 C.3      26        0    0.0000
    159 H          75.6446  113.3531   71.0258 H        26        0    0.0000
    160 H          76.5542  114.0912   69.7120 H        26        0    0.0000
    161 H          74.7590  113.1711   68.5016 H        26        0    0.0000
    162 H          75.9158  111.8494   68.3867 H        26        0    0.0000
    163 C          74.2756  111.4651   69.7766 C.3      27        0    0.0000
    164 C          74.1583  110.1242   69.0437 C.3      27        0    0.0000
    165 H          74.5819  111.2997   70.8170 H        27        0    0.0000
    166 H          73.2980  111.9617   69.8112 H        27        0    0.0000
    167 H          73.1054  109.8238   68.9751 H        27        0    0.0000
    168 H          74.5249  110.2246   68.0146 H        27        0    0.0000
    169 C          74.9635  108.9844   69.7579 C.3      28        0    0.0000
    170 C          74.0820  107.7789   70.1027 C.3      28        0    0.0000
    171 H          75.7889  108.6726   69.1060 H        28        0    0.0000
    172 H          75.4184  109.3907   70.6697 H        28        0    0.0000
    173 H          73.1955  107.7641   69.4565 H        28        0    0.0000
    174 H          74.6275  106.8467   69.9104 H        28        0    0.0000
    175 C          73.6161  107.7922   71.5994 C.3      29        0    0.0000
    176 C          74.1300  106.5765   72.3785 C.3      29        0    0.0000
    177 H          73.9686  108.7178   72.0712 H        29        0    0.0000
    178 H          72.5198  107.8216   71.6283 H        29        0    0.0000
    179 H          73.3356  106.1791   73.0223 H        29        0    0.0000
    180 H          74.4041  105.7729   71.6838 H        29        0    0.0000
    181 C          75.3744  106.9229   73.2668 C.3      30        0    0.0000
    182 C          75.8601  105.7186   74.0810 C.3      30        0    0.0000
    183 H          76.1806  107.2887   72.6189 H        30        0    0.0000
    184 H          75.1105  107.7492   73.9384 H        30        0    0.0000
    185 H          75.0512  105.3471   74.7223 H        30        0    0.0000
    186 H          76.1326  104.8954   73.4089 H        30        0    0.0000
    187 C          77.0967  106.0682   74.9789 C.3      31        0    0.0000
    188 C          77.4711  104.9212   75.9240 C.3      31        0    0.0000
    189 H          77.9466  106.3138   74.3302 H        31        0    0.0000
    190 H          76.8697  106.9728   75.5566 H        31        0    0.0000
    191 H          76.5946  104.6134   76.5076 H        31        0    0.0000
    192 H          77.7876  104.0448   75.3450 H        31        0    0.0000
    193 C          78.6223  105.3170   76.9117 C.3      32        0    0.0000
    194 C          78.8439  104.2598   77.9990 C.3      32        0    0.0000
    195 H          79.5453  105.4654   76.3376 H        32        0    0.0000
    196 H          78.3780  106.2831   77.3705 H        32        0    0.0000
    197 H          77.8821  103.9587   78.4324 H        32        0    0.0000
    198 H          79.2885  103.3575   77.5613 H        32        0    0.0000
    199 C          79.7765  104.7761   79.1484 C.3      33        0    0.0000
    200 C          79.8379  103.8006   80.3290 C.3      33        0    0.0000
    201 H          80.7824  104.9382   78.7417 H        33        0    0.0000
    202 H          79.4123  105.7540   79.4870 H        33        0    0.0000
    203 H          78.9038  103.2290   80.3935 H        33        0    0.0000
    204 H          80.6431  103.0720   80.1734 H        33        0    0.0000
    205 C          80.0768  104.5339   81.6938 C.3      34        0    0.0000
    206 C          80.0076  103.5757   82.8879 C.3      34        0    0.0000
    207 H          81.0563  105.0271   81.6635 H        34        0    0.0000
    208 H          79.3277  105.3278   81.8045 H        34        0    0.0000
    209 H          79.0903  102.9760   82.8363 H        34        0    0.0000
    210 H          80.8473  102.8706   82.8536 H        34        0    0.0000
    211 C          80.0396  104.3331   84.2601 C.3      35        0    0.0000
    212 C          79.9723  103.3747   85.4542 C.3      35        0    0.0000
    213 H          80.9561  104.9339   84.3111 H        35        0    0.0000
    214 H          79.1990  105.0372   84.2950 H        35        0    0.0000
    215 H          79.0520  102.7793   85.4073 H        35        0    0.0000
    216 H          80.8085  102.6658   85.4152 H        35        0    0.0000
    217 C          80.0150  104.1315   86.8265 C.3      36        0    0.0000
    218 C          79.9534  103.1728   88.0207 C.3      36        0    0.0000
    219 H          80.9332  104.7302   86.8717 H        36        0    0.0000
    220 H          79.1762  104.8374   86.8672 H        36        0    0.0000
    221 H          79.0346  102.5750   87.9761 H        36        0    0.0000
    222 H          80.7914  102.4660   87.9792 H        36        0    0.0000
    223 C          79.9980  103.9294   89.3929 C.3      37        0    0.0000
    224 C          79.9462  102.9701   90.5871 C.3      37        0    0.0000
    225 H          80.9132  104.5328   89.4344 H        37        0    0.0000
    226 H          79.1558  104.6311   89.4373 H        37        0    0.0000
    227 H          79.0304  102.3675   90.5461 H        37        0    0.0000
    228 H          80.7878  102.2678   90.5421 H        37        0    0.0000
    229 C          79.9923  103.7267   91.9593 C.3      38        0    0.0000
    230 C          79.9315  102.7679   93.1535 C.3      38        0    0.0000
    231 H          80.9113  104.3242   92.0030 H        38        0    0.0000
    232 H          79.1545  104.4337   92.0015 H        38        0    0.0000
    233 H          79.0135  102.1690   93.1087 H        38        0    0.0000
    234 H          80.7704  102.0621   93.1123 H        38        0    0.0000
    235 C          79.9748  103.5246   94.5257 C.3      39        0    0.0000
    236 C          79.9230  102.5654   95.7199 C.3      39        0    0.0000
    237 H          80.8897  104.1286   94.5677 H        39        0    0.0000
    238 H          79.1322  104.2258   94.5696 H        39        0    0.0000
    239 H          79.0074  101.9624   95.6786 H        39        0    0.0000
    240 H          80.7648  101.8633   95.6752 H        39        0    0.0000
    241 C          79.9683  103.3220   97.0921 C.3      40        0    0.0000
    242 C          79.9063  102.3633   98.2863 C.3      40        0    0.0000
    243 H          80.8876  103.9191   97.1365 H        40        0    0.0000
    244 H          79.1308  104.0294   97.1337 H        40        0    0.0000
    245 H          78.9877  101.7652   98.2413 H        40        0    0.0000
    246 H          80.7446  101.6568   98.2455 H        40        0    0.0000
    247 C          79.9498  103.1200   99.6585 C.3      41        0    0.0000
    248 C          79.8986  102.1608  100.8528 C.3      41        0    0.0000
    249 H          80.8645  103.7242   99.7003 H        41        0    0.0000
    250 H          79.1070  103.8210   99.7027 H        41        0    0.0000
    251 H          78.9832  101.5575  100.8117 H        41        0    0.0000
    252 H          80.7406  101.4589  100.8079 H        41        0    0.0000
    253 C          79.9440  102.9174  102.2250 C.3      42        0    0.0000
    254 C          79.8848  101.9585  103.4192 C.3      42        0    0.0000
    255 H          80.8622  103.5161  102.2684 H        42        0    0.0000
    256 H          79.1053  103.6233  102.2674 H        42        0    0.0000
    257 H          78.9676  101.3582  103.3745 H        42        0    0.0000
    258 H          80.7247  101.2540  103.3780 H        42        0    0.0000
    259 C          79.9270  102.7153  104.7914 C.3      43        0    0.0000
    260 C          79.8804  101.7558  105.9856 C.3      43        0    0.0000
    261 H          80.8396  103.3227  104.8323 H        43        0    0.0000
    262 H          79.0818  103.4133  104.8364 H        43        0    0.0000
    263 H          78.9665  101.1501  105.9460 H        43        0    0.0000
    264 H          80.7242  101.0562  105.9392 H        43        0    0.0000
    265 C          79.9261  102.5124  107.3578 C.3      44        0    0.0000
    266 C          79.8554  101.5543  108.5520 C.3      44        0    0.0000
    267 H          80.8485  103.1044  107.4046 H        44        0    0.0000
    268 H          79.0925  103.2245  107.3969 H        44        0    0.0000
    269 H          78.9338  100.9612  108.5043 H        44        0    0.0000
    270 H          80.6900  100.8433  108.5137 H        44        0    0.0000
    271 C          79.8989  102.3111  109.9242 C.3      45        0    0.0000
    272 C          79.8386  101.3523  111.1184 C.3      45        0    0.0000
    273 H          80.8169  102.9101  109.9687 H        45        0    0.0000
    274 H          79.0599  103.0167  109.9656 H        45        0    0.0000
    275 H          78.9173  100.7581  111.0776 H        45        0    0.0000
    276 H          80.6737  100.6423  111.0733 H        45        0    0.0000
    277 C          79.8918  102.1085  112.4906 C.3      46        0    0.0000
    278 C          79.7488  101.1573  113.6839 C.3      46        0    0.0000
    279 H          80.8408  102.6548  112.5567 H        46        0    0.0000
    280 H          79.0933  102.8604  112.5112 H        46        0    0.0000
    281 H          78.8028  100.6061  113.6143 H        46        0    0.0000
    282 H          80.5512  100.4094  113.6670 H        46        0    0.0000
    283 C          79.7926  101.9145  115.0558 C.3      47        0    0.0000
    284 C          79.9361  100.9566  116.2436 C.3      47        0    0.0000
    285 H          80.6293  102.6240  115.0415 H        47        0    0.0000
    286 H          78.8769  102.5094  115.1607 H        47        0    0.0000
    287 H          79.0796  100.2721  116.2803 H        47        0    0.0000
    288 H          80.8313  100.3348  116.1194 H        47        0    0.0000
    289 C          80.0345  101.7166  117.6112 C.3      48        0    0.0000
    290 C          79.0592  101.1621  118.6554 C.3      48        0    0.0000
    291 H          81.0643  101.6443  117.9825 H        48        0    0.0000
    292 H          79.8357  102.7817  117.4389 H        48        0    0.0000
    293 H          78.1096  100.8919  118.1770 H        48        0    0.0000
    294 H          79.4629  100.2422  119.0961 H        48        0    0.0000
    295 C          78.7719  102.1891  119.8044 C.3      49        0    0.0000
    296 C          79.3435  101.7298  121.1503 C.3      49        0    0.0000
    297 H          79.1996  103.1602  119.5258 H        49        0    0.0000
    298 H          77.6876  102.3342  119.8861 H        49        0    0.0000
    299 H          78.6202  101.9237  121.9520 H        49        0    0.0000
    300 H          79.5150  100.6463  121.1361 H        49        0    0.0000
    301 C          80.6911  102.4501  121.5004 C.3      50        0    0.0000
    302 C          80.6531  103.1142  122.8812 C.3      50        0    0.0000
    303 H          81.5056  101.7164  121.4581 H        50        0    0.0000
    304 H          80.9023  103.2000  120.7280 H        50        0    0.0000
    305 H          79.8386  103.8479  122.9234 H        50        0    0.0000
    306 H          80.4419  102.3643  123.6536 H        50        0    0.0000
    307 H          81.5901  103.6150  123.1246 H        50        0    0.0000
    308 H          69.2798  122.4687  121.7450 H         0        0    0.0000
@<TRIPOS>BOND
     1     1     2      1
     2     1     3      1
     3     1     4      1
     4     1   308      H
     5     2     5      1
     6     2     6      1
     7     2     7      1
     8     7     8      1
     9     7     9      1
    10     7    10      1
    11     8    11      1
    12     8    12      1
    13     8    13      1
    14    13    14      1
    15    13    15      1
    16    13    16      1
    17    14    17      1
    18    14    18      1
    19    14    19      1
    20    19    20      1
    21    19    21      1
    22    19    22      1
    23    20    23      1
    24    20    24      1
    25    20    25      1
    26    25    26      1
    27    25    27      1
    28    25    28      1
    29    26    29      1
    30    26    30      1
    31    26    31      1
    32    31    32      1
    33    31    33      1
    34    31    34      1
    35    32    35      1
    36    32    36      1
    37    32    37      1
    38    37    38      1
    39    37    39      1
    40    37    40      1
    41    38    41      1
    42    38    42      1
    43    38    43      1
    44    43    44      1
    45    43    45      1
    46    43    46      1
    47    44    47      1
    48    44    48      1
    49    44    49      1
    50    49    50      1
    51    49    51      1
    52    49    52      1
    53    50    53      1
    54    50    54      1
    55    50    55      1
    56    55    56      1
    57    55    57      1
    58    55    58      1
    59    56    59      1
    60    56    60      1
    61    56    61      1
    62    61    62      1
    63    61    63      1
    64    61    64      1
    65    62    65      1
    66    62    66      1
    67    62    67      1
    68    67    68      1
    69    67    69      1
    70    67    70      1
    71    68    71      1
    72    68    72      1
    73    68    73      1
    74    73    74      1
    75    73    75      1
    76    73    76      1
    77    74    77      1
    78    74    78      1
    79    74    79      1
    80    79    80      1
    81    79    81      1
    82    79    82      1
    83    80    83      1
    84    80    84      1
    85    80    85      1
    86    85    86      1
    87    85    87      1
    88    85    88      1
    89    86    89      1
    90    86    90      1
    91    86    91      1
    92    91    92      1
    93    91    93      1
    94    91    94      1
    95    92    95      1
    96    92    96      1
    97    92    97      1
    98    97    98      1
    99    97    99      1
   100    97   100      1
   101    98   101      1
   102    98   102      1
   103    98   103      1
   104   103   104      1
   105   103   105      1
   106   103   106      1
   107   104   107      1
   108   104   108      1
   109   104   109      1
   110   109   110      1
   111   109   111      1
   112   109   112      1
   113   110   113      1
   114   110   114      1
   115   110   115      1
   116   115   116      1
   117   115   117      1
   118   115   118      1
   119   116   119      1
   120   116   120      1
   121   116   121      1
   122   121   122      1
   123   121   123      1
   124   121   124      1
   125   122   125      1
   126   122   126      1
   127   122   127      1
   128   127   128      1
   129   127   129      1
   130   127   130      1
   131   128   131      1
   132   128   132      1
   133   128   133      1
   134   133   134      1
   135   133   135      1
   136   133   136      1
   137   134   137      1
   138   134   138      1
   139   134   139      1
   140   139   140      1
   141   139   141      1
   142   139   142      1
   143   140   143      1
   144   140   144      1
   145   140   145      1
   146   145   146      1
   147   145   147      1
   148   145   148      1
   149   146   149      1
   150   146   150      1
   151   146   151      1
   152   151   152      1
   153   151   153      1
   154   151   154      1
   155   152   155      1
   156   152   156      1
   157   152   157      1
   158   157   158      1
   159   157   159      1
   160   157   160      1
   161   158   161      1
   162   158   162      1
   163   158   163      1
   164   163   164      1
   165   163   165      1
   166   163   166      1
   167   164   167      1
   168   164   168      1
   169   164   169      1
   170   169   170      1
   171   169   171      1
   172   169   172      1
   173   170   173      1
   174   170   174      1
   175   170   175      1
   176   175   176      1
   177   175   177      1
   178   175   178      1
   179   176   179      1
   180   176   180      1
   181   176   181      1
   182   181   182      1
   183   181   183      1
   184   181   184      1
   185   182   185      1
   186   182   186      1
   187   182   187      1
   188   187   188      1
   189   187   189      1
   190   187   190      1
   191   188   191      1
   192   188   192      1
   193   188   193      1
   194   193   194      1
   195   193   195      1
   196   193   196      1
   197   194   197      1
   198   194   198      1
   199   194   199      1
   200   199   200      1
   201   199   201      1
   202   199   202      1
   203   200   203      1
   204   200   204      1
   205   200   205      1
   206   205   206      1
   207   205   207      1
   208   205   208      1
   209   206   209      1
   210   206   210      1
   211   206   211      1
   212   211   212      1
   213   211   213      1
   214   211   214      1
   215   212   215      1
   216   212   216      1
   217   212   217      1
   218   217   218      1
   219   217   219      1
   220   217   220      1
   221   218   221      1
   222   218   222      1
   223   218   223      1
   224   223   224      1
   225   223   225      1
   226   223   226      1
   227   224   227      1
   228   224   228      1
   229   224   229      1
   230   229   230      1
   231   229   231      1
   232   229   232      1
   233   230   233      1
   234   230   234      1
   235   230   235      1
   236   235   236      1
   237   235   237      1
   238   235   238      1
   239   236   239      1
   240   236   240      1
   241   236   241      1
   242   241   242      1
   243   241   243      1
   244   241   244      1
   245   242   245      1
   246   242   246      1
   247   242   247      1
   248   247   248      1
   249   247   249      1
   250   247   250      1
   251   248   251      1
   252   248   252      1
   253   248   253      1
   254   253   254      1
   255   253   255      1
   256   253   256      1
   257   254   257      1
   258   254   258      1
   259   254   259      1
   260   259   260      1
   261   259   261      1
   262   259   262      1
   263   260   263      1
   264   260   264      1
   265   260   265      1
   266   265   266      1
   267   265   267      1
   268   265   268      1
   269   266   269      1
   270   266   270      1
   271   266   271      1
   272   271   272      1
   273   271   273      1
   274   271   274      1
   275   272   275      1
   276   272   276      1
   277   272   277      1
   278   277   278      1
   279   277   279      1
   280   277   280      1
   281   278   281      1
   282   278   282      1
   283   278   283      1
   284   283   284      1
   285   283   285      1
   286   283   286      1
   287   284   287      1
   288   284   288      1
   289   284   289      1
   290   289   290      1
   291   289   291      1
   292   289   292      1
   293   290   293      1
   294   290   294      1
   295   290   295      1
   296   295   296      1
   297   295   297      1
   298   295   298      1
   299   296   299      1
   300   296   300      1
   301   296   301      1
   302   301   302      1
   303   301   303      1
   304   301   304      1
   305   302   305      1
   306   302   306      1
   307   302   307      H
