###
### Created by PolyChef-cpp17 on Thu Feb 27 19:40:30 2025
###

@<TRIPOS>MOLECULE
NO_INFO
464 463 1 0 0
SMALL
USER_CHARGES


@<TRIPOS>ATOM
      1 C          49.2798   53.1887  -39.3449 C.3       0        0    0.0000
      2 C          47.8706   53.0282  -38.7641 C.3       0        0    0.0000
      3 H          49.9271   52.3766  -38.9913 H         0        0    0.0000
      4 H          49.7280   54.1255  -38.9913 H         0        0    0.0000
      5 H          47.3722   54.0041  -38.7111 H         0        0    0.0000
      6 H          47.2611   52.3986  -39.4242 H         0        0    0.0000
      7 C          47.8873   52.3909  -37.3319 C.3       1        0    0.0000
      8 C          49.1651   52.7342  -36.5583 C.3       1        0    0.0000
      9 H          47.0071   52.7411  -36.7787 H         1        0    0.0000
     10 H          47.7866   51.3027  -37.4280 H         1        0    0.0000
     11 H          50.0454   52.5565  -37.1883 H         1        0    0.0000
     12 H          49.1730   53.8002  -36.2992 H         1        0    0.0000
     13 C          49.3071   51.8934  -35.2429 C.3       2        0    0.0000
     14 C          50.2066   52.5799  -34.2091 C.3       2        0    0.0000
     15 H          48.3085   51.7261  -34.8206 H         2        0    0.0000
     16 H          49.7115   50.9056  -35.4965 H         2        0    0.0000
     17 H          51.2608   52.4553  -34.4859 H         2        0    0.0000
     18 H          50.0096   53.6590  -34.1966 H         2        0    0.0000
     19 C          49.9929   52.0105  -32.7642 C.3       3        0    0.0000
     20 C          50.6251   52.9015  -31.6893 C.3       3        0    0.0000
     21 H          48.9163   51.9062  -32.5809 H         3        0    0.0000
     22 H          50.4200   51.0012  -32.7152 H         3        0    0.0000
     23 H          51.7143   52.9303  -31.8175 H         3        0    0.0000
     24 H          50.2677   53.9330  -31.7979 H         3        0    0.0000
     25 C          50.2999   52.4041  -30.2387 C.3       4        0    0.0000
     26 C          50.9093   53.3106  -29.1636 C.3       4        0    0.0000
     27 H          49.2107   52.3562  -30.1171 H         4        0    0.0000
     28 H          50.6751   51.3796  -30.1238 H         4        0    0.0000
     29 H          51.9989   53.3559  -29.2831 H         4        0    0.0000
     30 H          50.5368   54.3359  -29.2806 H         4        0    0.0000
     31 C          50.5802   52.8159  -27.7129 C.3       5        0    0.0000
     32 C          51.1722   53.7340  -26.6379 C.3       5        0    0.0000
     33 H          49.4908   52.7563  -27.5983 H         5        0    0.0000
     34 H          50.9661   51.7963  -27.5910 H         5        0    0.0000
     35 H          52.2618   53.7928  -26.7518 H         5        0    0.0000
     36 H          50.7872   54.7539  -26.7604 H         5        0    0.0000
     37 C          50.8418   53.2401  -25.1872 C.3       6        0    0.0000
     38 C          51.4547   54.1443  -24.1121 C.3       6        0    0.0000
     39 H          49.7521   53.1986  -25.0674 H         6        0    0.0000
     40 H          51.2109   52.2136  -25.0705 H         6        0    0.0000
     41 H          52.5438   54.1902  -24.2353 H         6        0    0.0000
     42 H          51.0813   55.1696  -24.2254 H         6        0    0.0000
     43 C          51.1308   53.6460  -22.6615 C.3       7        0    0.0000
     44 C          50.9840   54.8043  -21.6687 C.3       7        0    0.0000
     45 H          50.2073   53.0545  -22.6887 H         7        0    0.0000
     46 H          51.9292   52.9686  -22.3338 H         7        0    0.0000
     47 H          51.9461   55.3162  -21.5428 H         7        0    0.0000
     48 H          50.2800   55.5488  -22.0607 H         7        0    0.0000
     49 C          50.4802   54.3229  -20.2644 C.3       8        0    0.0000
     50 C          51.3997   54.7838  -19.1281 C.3       8        0    0.0000
     51 H          49.4639   54.7036  -20.1037 H         8        0    0.0000
     52 H          50.4093   53.2282  -20.2704 H         8        0    0.0000
     53 H          52.4437   54.7831  -19.4653 H         8        0    0.0000
     54 H          51.1605   55.8166  -18.8460 H         8        0    0.0000
     55 C          51.2781   53.8722  -17.8586 C.3       9        0    0.0000
     56 C          50.9763   54.6790  -16.5909 C.3       9        0    0.0000
     57 H          50.4876   53.1310  -18.0299 H         9        0    0.0000
     58 H          52.2133   53.3123  -17.7344 H         9        0    0.0000
     59 H          51.8757   55.2148  -16.2630 H         9        0    0.0000
     60 H          50.2153   55.4405  -16.8020 H         9        0    0.0000
     61 C          50.4717   53.7724  -15.4158 C.3      10        0    0.0000
     62 C          50.8678   54.3270  -14.0430 C.3      10        0    0.0000
     63 H          49.3806   53.6803  -15.4837 H        10        0    0.0000
     64 H          50.8817   52.7633  -15.5465 H        10        0    0.0000
     65 H          51.9413   54.5524  -14.0239 H        10        0    0.0000
     66 H          50.3440   55.2721  -13.8537 H        10        0    0.0000
     67 C          50.5408   53.3265  -12.8812 C.3      11        0    0.0000
     68 C          50.7635   53.9492  -11.4986 C.3      11        0    0.0000
     69 H          49.4995   52.9962  -12.9817 H        11        0    0.0000
     70 H          51.1672   52.4334  -12.9969 H        11        0    0.0000
     71 H          51.8140   54.2438  -11.3835 H        11        0    0.0000
     72 H          50.1669   54.8642  -11.3976 H        11        0    0.0000
     73 C          50.3839   52.9676  -10.3368 C.3      12        0    0.0000
     74 C          50.6206   53.5849   -8.9541 C.3      12        0    0.0000
     75 H          49.3304   52.6815  -10.4457 H        12        0    0.0000
     76 H          50.9727   52.0482  -10.4441 H        12        0    0.0000
     77 H          51.6734   53.8741   -8.8465 H        12        0    0.0000
     78 H          50.0292   54.5024   -8.8455 H        12        0    0.0000
     79 C          50.2456   52.6015   -7.7923 C.3      13        0    0.0000
     80 C          50.4799   53.2197   -6.4096 C.3      13        0    0.0000
     81 H          49.1933   52.3108   -7.9010 H        13        0    0.0000
     82 H          50.8384   51.6847   -7.8999 H        13        0    0.0000
     83 H          51.5318   53.5121   -6.3017 H        13        0    0.0000
     84 H          49.8857   54.1355   -6.3014 H        13        0    0.0000
     85 C          50.1073   52.2354   -5.2478 C.3      14        0    0.0000
     86 C          50.3384   52.8548   -3.8651 C.3      14        0    0.0000
     87 H          49.0562   51.9410   -5.3573 H        14        0    0.0000
     88 H          50.7034   51.3206   -5.3546 H        14        0    0.0000
     89 H          51.3887   53.1525   -3.7570 H        14        0    0.0000
     90 H          49.7396   53.7677   -3.7571 H        14        0    0.0000
     91 C          49.9704   51.8688   -2.7033 C.3      15        0    0.0000
     92 C          50.2017   52.4881   -1.3206 C.3      15        0    0.0000
     93 H          48.9200   51.5713   -2.8114 H        15        0    0.0000
     94 H          50.5691   50.9558   -2.8115 H        15        0    0.0000
     95 H          51.2494   52.7966   -1.2171 H        15        0    0.0000
     96 H          49.5939   53.3944   -1.2080 H        15        0    0.0000
     97 C          49.8499   51.4961   -0.1589 C.3      16        0    0.0000
     98 C          49.9553   52.1561    1.2204 C.3      16        0    0.0000
     99 H          48.8338   51.1135   -0.3162 H        16        0    0.0000
    100 H          50.5240   50.6324   -0.2151 H        16        0    0.0000
    101 H          49.6209   51.4581    1.9979 H        16        0    0.0000
    102 H          51.0020   52.3976    1.4428 H        16        0    0.0000
    103 C          49.1023   53.4677    1.3181 C.3      17        0    0.0000
    104 C          49.2146   54.1325    2.6945 C.3      17        0    0.0000
    105 H          49.4323   54.1632    0.5364 H        17        0    0.0000
    106 H          48.0545   53.2250    1.1019 H        17        0    0.0000
    107 H          49.6102   55.1503    2.5895 H        17        0    0.0000
    108 H          48.2206   54.2261    3.1492 H        17        0    0.0000
    109 C          50.1423   53.3278    3.6689 C.3      18        0    0.0000
    110 C          50.1764   53.9378    5.0746 C.3      18        0    0.0000
    111 H          49.7889   52.2904    3.7175 H        18        0    0.0000
    112 H          51.1548   53.2963    3.2478 H        18        0    0.0000
    113 H          50.7525   53.2936    5.7503 H        18        0    0.0000
    114 H          50.6884   54.9078    5.0514 H        18        0    0.0000
    115 C          48.7403   54.1386    5.6701 C.3      19        0    0.0000
    116 C          48.7694   54.8383    7.0334 C.3      19        0    0.0000
    117 H          48.1416   54.7227    4.9602 H        19        0    0.0000
    118 H          48.2547   53.1590    5.7603 H        19        0    0.0000
    119 H          48.2920   55.8234    6.9610 H        19        0    0.0000
    120 H          48.1908   54.2608    7.7650 H        19        0    0.0000
    121 C          50.2287   55.0227    7.5755 C.3      20        0    0.0000
    122 C          50.2606   55.7604    8.9185 C.3      20        0    0.0000
    123 H          50.6955   54.0351    7.6776 H        20        0    0.0000
    124 H          50.8159   55.5731    6.8300 H        20        0    0.0000
    125 H          51.2629   55.6952    9.3598 H        20        0    0.0000
    126 H          50.0518   56.8267    8.7671 H        20        0    0.0000
    127 C          49.2206   55.1819    9.9390 C.3      21        0    0.0000
    128 C          49.2282   55.9419   11.2699 C.3      21        0    0.0000
    129 H          48.2216   55.2236    9.4876 H        21        0    0.0000
    130 H          49.4451   54.1217   10.1099 H        21        0    0.0000
    131 H          48.2450   56.3936   11.4507 H        21        0    0.0000
    132 H          49.4130   55.2472   12.0987 H        21        0    0.0000
    133 C          50.3164   57.0697   11.3038 C.3      22        0    0.0000
    134 C          50.3622   57.7924   12.6546 C.3      22        0    0.0000
    135 H          51.2943   56.6245   11.0821 H        22        0    0.0000
    136 H          50.1075   57.7870   10.5004 H        22        0    0.0000
    137 H          51.2141   58.4829   12.6832 H        22        0    0.0000
    138 H          49.4589   58.4008   12.7865 H        22        0    0.0000
    139 C          50.4797   56.7949   13.8583 C.3      23        0    0.0000
    140 C          50.2799   57.4895   15.2098 C.3      23        0    0.0000
    141 H          49.7362   55.9983   13.7312 H        23        0    0.0000
    142 H          51.4653   56.3144   13.8244 H        23        0    0.0000
    143 H          49.2966   57.2327   15.6230 H        23        0    0.0000
    144 H          51.0269   57.1332   15.9299 H        23        0    0.0000
    145 C          50.3894   59.0493   15.0982 C.3      24        0    0.0000
    146 C          50.1570   59.7457   16.4435 C.3      24        0    0.0000
    147 H          51.3817   59.3070   14.7076 H        24        0    0.0000
    148 H          49.6587   59.4031   14.3603 H        24        0    0.0000
    149 H          50.4301   60.8057   16.3705 H        24        0    0.0000
    150 H          49.0922   59.7120   16.7056 H        24        0    0.0000
    151 C          50.9836   59.0896   17.6027 C.3      25        0    0.0000
    152 C          50.6256   59.6734   18.9739 C.3      25        0    0.0000
    153 H          50.8043   58.0073   17.5962 H        25        0    0.0000
    154 H          52.0522   59.2331   17.4001 H        25        0    0.0000
    155 H          50.0536   58.9409   19.5569 H        25        0    0.0000
    156 H          51.5394   59.8846   19.5430 H        25        0    0.0000
    157 C          49.7867   60.9925   18.8573 C.3      26        0    0.0000
    158 C          49.5239   61.6364   20.2231 C.3      26        0    0.0000
    159 H          50.3217   61.6955   18.2068 H        26        0    0.0000
    160 H          48.8359   60.7641   18.3599 H        26        0    0.0000
    161 H          50.0495   62.5968   20.2937 H        26        0    0.0000
    162 H          48.4546   61.8533   20.3373 H        26        0    0.0000
    163 C          49.9832   60.7207   21.4098 C.3      27        0    0.0000
    164 C          49.9012   61.4376   22.7620 C.3      27        0    0.0000
    165 H          49.3580   59.8194   21.4234 H        27        0    0.0000
    166 H          51.0116   60.3880   21.2222 H        27        0    0.0000
    167 H          48.8788   61.7947   22.9371 H        27        0    0.0000
    168 H          50.1337   60.7372   23.5738 H        27        0    0.0000
    169 C          50.8838   62.6560   22.8490 C.3      28        0    0.0000
    170 C          50.8290   63.3500   24.2144 C.3      28        0    0.0000
    171 H          51.9029   62.3036   22.6468 H        28        0    0.0000
    172 H          50.6337   63.3695   22.0541 H        28        0    0.0000
    173 H          51.8098   63.2967   24.7031 H        28        0    0.0000
    174 H          50.5984   64.4148   24.0862 H        28        0    0.0000
    175 C          49.7565   62.7114   25.1628 C.3      29        0    0.0000
    176 C          49.7956   63.3128   26.5720 C.3      29        0    0.0000
    177 H          48.7630   62.8546   24.7202 H        29        0    0.0000
    178 H          49.9269   61.6287   25.2110 H        29        0    0.0000
    179 H          48.8638   63.0848   27.1043 H        29        0    0.0000
    180 H          50.6088   62.8592   27.1522 H        29        0    0.0000
    181 C          49.9973   64.8672   26.5493 C.3      30        0    0.0000
    182 C          50.0927   65.4613   27.9589 C.3      30        0    0.0000
    183 H          50.9075   65.0974   25.9817 H        30        0    0.0000
    184 H          49.1621   65.3242   26.0042 H        30        0    0.0000
    185 H          51.0774   65.9216   28.1073 H        30        0    0.0000
    186 H          49.3501   66.2594   28.0818 H        30        0    0.0000
    187 C          49.8654   64.3836   29.0744 C.3      31        0    0.0000
    188 C          49.9540   64.9790   30.4839 C.3      31        0    0.0000
    189 H          48.8829   63.9197   28.9230 H        31        0    0.0000
    190 H          50.6112   63.5880   28.9546 H        31        0    0.0000
    191 H          49.6335   64.2375   31.2263 H        31        0    0.0000
    192 H          50.9948   65.2322   30.7206 H        31        0    0.0000
    193 C          49.0725   66.2657   30.6418 C.3      32        0    0.0000
    194 C          49.1740   66.8705   32.0463 C.3      32        0    0.0000
    195 H          49.3849   67.0025   29.8914 H        32        0    0.0000
    196 H          48.0297   66.0097   30.4168 H        32        0    0.0000
    197 H          50.1500   67.3536   32.1783 H        32        0    0.0000
    198 H          48.4154   67.6526   32.1748 H        32        0    0.0000
    199 C          48.9863   65.7950   33.1713 C.3      33        0    0.0000
    200 C          49.4210   66.3118   34.5472 C.3      33        0    0.0000
    201 H          47.9322   65.4925   33.1990 H        33        0    0.0000
    202 H          49.5638   64.9009   32.9056 H        33        0    0.0000
    203 H          48.7309   65.9507   35.3198 H        33        0    0.0000
    204 H          50.4126   65.9171   34.8012 H        33        0    0.0000
    205 C          49.4703   67.8775   34.6054 C.3      34        0    0.0000
    206 C          49.8370   68.3957   36.0004 C.3      34        0    0.0000
    207 H          50.1987   68.2360   33.8675 H        34        0    0.0000
    208 H          48.4933   68.2736   34.3018 H        34        0    0.0000
    209 H          50.8845   68.1603   36.2258 H        34        0    0.0000
    210 H          49.7458   69.4885   36.0317 H        34        0    0.0000
    211 C          48.9287   67.7806   37.1203 C.3      35        0    0.0000
    212 C          49.3416   68.2427   38.5221 C.3      35        0    0.0000
    213 H          47.8863   68.0607   36.9238 H        35        0    0.0000
    214 H          48.9786   66.6866   37.0550 H        35        0    0.0000
    215 H          48.5594   67.9878   39.2479 H        35        0    0.0000
    216 H          50.2498   67.7156   38.8396 H        35        0    0.0000
    217 C          49.6054   69.7867   38.5850 C.3      36        0    0.0000
    218 C          49.9557   70.2590   40.0004 C.3      36        0    0.0000
    219 H          50.4200   70.0348   37.8933 H        36        0    0.0000
    220 H          48.7135   70.3129   38.2229 H        36        0    0.0000
    221 H          50.9462   69.8847   40.2875 H        36        0    0.0000
    222 H          50.0125   71.3542   40.0282 H        36        0    0.0000
    223 C          48.9072   69.7803   41.0629 C.3      37        0    0.0000
    224 C          49.3213   70.1449   42.4928 C.3      37        0    0.0000
    225 H          47.9344   70.2293   40.8270 H        37        0    0.0000
    226 H          48.7830   68.6940   40.9727 H        37        0    0.0000
    227 H          48.4585   70.0669   43.1658 H        37        0    0.0000
    228 H          50.0722   69.4342   42.8597 H        37        0    0.0000
    229 C          49.9084   71.5952   42.5898 C.3      38        0    0.0000
    230 C          50.2067   72.0056   44.0360 C.3      38        0    0.0000
    231 H          50.8239   71.6471   41.9875 H        38        0    0.0000
    232 H          49.1948   72.2963   42.1394 H        38        0    0.0000
    233 H          51.0345   71.4057   44.4341 H        38        0    0.0000
    234 H          50.5316   73.0529   44.0704 H        38        0    0.0000
    235 C          48.9611   71.8319   44.9719 C.3      39        0    0.0000
    236 C          49.2998   72.0918   46.4439 C.3      39        0    0.0000
    237 H          48.1717   72.5180   44.6407 H        39        0    0.0000
    238 H          48.5666   70.8155   44.8504 H        39        0    0.0000
    239 H          48.3797   72.2561   47.0182 H        39        0    0.0000
    240 H          49.7894   71.2114   46.8783 H        39        0    0.0000
    241 C          50.2386   73.3338   46.6272 C.3      40        0    0.0000
    242 C          50.4700   73.6741   48.1036 C.3      40        0    0.0000
    243 H          51.1967   73.1288   46.1337 H        40        0    0.0000
    244 H          49.7944   74.1924   46.1085 H        40        0    0.0000
    245 H          51.0534   72.8798   48.5857 H        40        0    0.0000
    246 H          51.0604   74.5948   48.1893 H        40        0    0.0000
    247 C          49.1257   73.8609   48.8881 C.3      41        0    0.0000
    248 C          49.3512   74.0322   50.3943 C.3      41        0    0.0000
    249 H          48.5994   74.7348   48.4847 H        41        0    0.0000
    250 H          48.4831   72.9918   48.7004 H        41        0    0.0000
    251 H          48.4409   74.4186   50.8694 H        41        0    0.0000
    252 H          49.5592   73.0593   50.8566 H        41        0    0.0000
    253 C          50.5384   75.0060   50.7104 C.3      42        0    0.0000
    254 C          50.6752   75.2874   52.2107 C.3      42        0    0.0000
    255 H          51.4671   74.5685   50.3235 H        42        0    0.0000
    256 H          50.3809   75.9444   50.1645 H        42        0    0.0000
    257 H          50.9831   74.3758   52.7379 H        42        0    0.0000
    258 H          51.4618   76.0322   52.3836 H        42        0    0.0000
    259 C          49.3382   75.8087   52.8417 C.3      43        0    0.0000
    260 C          49.4276   75.9396   54.3662 C.3      43        0    0.0000
    261 H          49.0913   76.7797   52.3947 H        43        0    0.0000
    262 H          48.5274   75.1215   52.5701 H        43        0    0.0000
    263 H          48.6031   76.5595   54.7395 H        43        0    0.0000
    264 H          49.3182   74.9540   54.8354 H        43        0    0.0000
    265 C          50.7852   76.5719   54.8295 C.3      44        0    0.0000
    266 C          50.8205   76.8293   56.3400 C.3      44        0    0.0000
    267 H          51.6041   75.9003   54.5432 H        44        0    0.0000
    268 H          50.9424   77.5107   54.2842 H        44        0    0.0000
    269 H          50.8109   75.8768   56.8842 H        44        0    0.0000
    270 H          51.7529   77.3387   56.6131 H        44        0    0.0000
    271 C          49.6091   77.6993   56.8229 C.3      45        0    0.0000
    272 C          49.5591   77.8291   58.3492 C.3      45        0    0.0000
    273 H          49.6817   78.6927   56.3630 H        45        0    0.0000
    274 H          48.6800   77.2481   56.4531 H        45        0    0.0000
    275 H          48.9021   78.6601   58.6347 H        45        0    0.0000
    276 H          49.1286   76.9214   58.7900 H        45        0    0.0000
    277 C          50.9775   78.0695   58.9718 C.3      46        0    0.0000
    278 C          50.9127   78.3326   60.4803 C.3      46        0    0.0000
    279 H          51.6057   77.1932   58.7694 H        46        0    0.0000
    280 H          51.4482   78.9191   58.4617 H        46        0    0.0000
    281 H          50.5877   77.4265   61.0066 H        46        0    0.0000
    282 H          51.9113   78.5778   60.8627 H        46        0    0.0000
    283 C          49.9333   79.5032   60.8378 C.3      47        0    0.0000
    284 C          49.7467   79.6631   62.3506 C.3      47        0    0.0000
    285 H          50.3222   80.4339   60.4063 H        47        0    0.0000
    286 H          48.9654   79.3136   60.3573 H        47        0    0.0000
    287 H          49.2905   80.6357   62.5727 H        47        0    0.0000
    288 H          49.0567   78.8980   62.7274 H        47        0    0.0000
    289 C          51.1014   79.5504   63.1314 C.3      48        0    0.0000
    290 C          50.9361   79.8434   64.6267 C.3      48        0    0.0000
    291 H          51.5090   78.5419   62.9886 H        48        0    0.0000
    292 H          51.8236   80.2477   62.6891 H        48        0    0.0000
    293 H          50.3377   79.0554   65.1005 H        48        0    0.0000
    294 H          51.9150   79.8364   65.1219 H        48        0    0.0000
    295 C          50.2473   81.2271   64.8883 C.3      49        0    0.0000
    296 C          49.9374   81.4503   66.3726 C.3      49        0    0.0000
    297 H          50.9032   82.0243   64.5170 H        49        0    0.0000
    298 H          49.3234   81.2793   64.2991 H        49        0    0.0000
    299 H          49.7003   82.5062   66.5528 H        49        0    0.0000
    300 H          49.0498   80.8743   66.6623 H        49        0    0.0000
    301 C          51.1329   81.0358   67.2981 C.3      50        0    0.0000
    302 C          50.8765   81.3831   68.7687 C.3      50        0    0.0000
    303 H          51.3059   79.9578   67.1907 H        50        0    0.0000
    304 H          52.0428   81.5375   66.9462 H        50        0    0.0000
    305 H          51.0914   80.5144   69.4033 H        50        0    0.0000
    306 H          51.5545   82.1834   69.0900 H        50        0    0.0000
    307 C          49.3987   81.8407   69.0222 C.3      51        0    0.0000
    308 C          49.1880   82.3599   70.4487 C.3      51        0    0.0000
    309 H          49.1408   82.6213   68.2958 H        51        0    0.0000
    310 H          48.7281   80.9947   68.8269 H        51        0    0.0000
    311 H          48.1608   82.7262   70.5678 H        51        0    0.0000
    312 H          49.3166   81.5427   71.1693 H        51        0    0.0000
    313 C          50.1821   83.5159   70.8131 C.3      52        0    0.0000
    314 C          50.0896   83.9180   72.2892 C.3      52        0    0.0000
    315 H          51.2030   83.1927   70.5746 H        52        0    0.0000
    316 H          49.9681   84.3811   70.1735 H        52        0    0.0000
    317 H          50.8433   84.6812   72.5192 H        52        0    0.0000
    318 H          49.1112   84.3693   72.4955 H        52        0    0.0000
    319 C          50.2961   82.6977   73.2514 C.3      53        0    0.0000
    320 C          50.2136   83.1016   74.7276 C.3      53        0    0.0000
    321 H          49.5377   81.9377   73.0264 H        53        0    0.0000
    322 H          51.2713   82.2419   73.0400 H        53        0    0.0000
    323 H          49.4232   82.5305   75.2302 H        53        0    0.0000
    324 H          51.1531   82.8556   75.2379 H        53        0    0.0000
    325 C          49.9252   84.6316   74.9097 C.3      54        0    0.0000
    326 C          49.9780   85.0617   76.3799 C.3      54        0    0.0000
    327 H          50.6575   85.2016   74.3245 H        54        0    0.0000
    328 H          48.9387   84.8583   74.4867 H        54        0    0.0000
    329 H          49.2578   84.4797   76.9681 H        54        0    0.0000
    330 H          50.9700   84.8507   76.7981 H        54        0    0.0000
    331 C          49.6659   86.5868   76.5643 C.3      55        0    0.0000
    332 C          49.7195   87.0170   78.0344 C.3      55        0    0.0000
    333 H          50.3857   87.1688   75.9755 H        55        0    0.0000
    334 H          48.6736   86.7977   76.1466 H        55        0    0.0000
    335 H          50.4665   87.8094   78.1674 H        55        0    0.0000
    336 H          48.7539   87.4402   78.3379 H        55        0    0.0000
    337 C          50.0715   85.8251   78.9898 C.3      56        0    0.0000
    338 C          50.1020   86.2502   80.4620 C.3      56        0    0.0000
    339 H          49.3344   85.0257   78.8443 H        56        0    0.0000
    340 H          51.0451   85.4129   78.6970 H        56        0    0.0000
    341 H          51.1330   86.4633   80.7707 H        56        0    0.0000
    342 H          49.5344   87.1792   80.5971 H        56        0    0.0000
    343 C          49.5074   85.1523   81.4098 C.3      57        0    0.0000
    344 C          49.5669   85.5642   82.8849 C.3      57        0    0.0000
    345 H          48.4689   84.9559   81.1157 H        57        0    0.0000
    346 H          50.0601   84.2169   81.2579 H        57        0    0.0000
    347 H          48.8462   86.3679   83.0804 H        57        0    0.0000
    348 H          49.2780   84.7200   83.5231 H        57        0    0.0000
    349 C          50.9951   86.0522   83.3083 C.3      58        0    0.0000
    350 C          51.0263   86.5781   84.7476 C.3      58        0    0.0000
    351 H          51.7008   85.2197   83.1967 H        58        0    0.0000
    352 H          51.3210   86.8367   82.6141 H        58        0    0.0000
    353 H          52.0619   86.6350   85.1050 H        58        0    0.0000
    354 H          50.6238   87.5980   84.7843 H        58        0    0.0000
    355 C          50.2023   85.6742   85.7283 C.3      59        0    0.0000
    356 C          50.0393   86.3154   87.1108 C.3      59        0    0.0000
    357 H          49.2177   85.4785   85.2859 H        59        0    0.0000
    358 H          50.7047   84.7033   85.8208 H        59        0    0.0000
    359 H          50.8090   87.0821   87.2630 H        59        0    0.0000
    360 H          49.0699   86.8247   87.1772 H        59        0    0.0000
    361 C          50.1378   85.2635   88.2689 C.3      60        0    0.0000
    362 C          50.0542   85.9147   89.6538 C.3      60        0    0.0000
    363 H          49.3316   84.5292   88.1492 H        60        0    0.0000
    364 H          51.0820   84.7140   88.1680 H        60        0    0.0000
    365 H          50.7693   86.7438   89.7234 H        60        0    0.0000
    366 H          49.0569   86.3452   89.8075 H        60        0    0.0000
    367 C          50.3481   84.8958   90.8082 C.3      61        0    0.0000
    368 C          50.2454   85.5424   92.1940 C.3      61        0    0.0000
    369 H          49.6423   84.0596   90.7301 H        61        0    0.0000
    370 H          51.3512   84.4760   90.6625 H        61        0    0.0000
    371 H          50.3058   84.7730   92.9736 H        61        0    0.0000
    372 H          51.0914   86.2219   92.3557 H        61        0    0.0000
    373 C          48.9110   86.3443   92.3779 C.3      62        0    0.0000
    374 C          48.8013   86.9783   93.7689 C.3      62        0    0.0000
    375 H          48.8558   87.1211   91.6051 H        62        0    0.0000
    376 H          48.0650   85.6675   92.2051 H        62        0    0.0000
    377 H          48.6732   88.0641   93.6784 H        62        0    0.0000
    378 H          47.9117   86.5983   94.2864 H        62        0    0.0000
    379 C          50.0625   86.6903   94.6542 C.3      63        0    0.0000
    380 C          49.8051   86.9670   96.1395 C.3      63        0    0.0000
    381 H          50.3624   85.6445   94.5129 H        63        0    0.0000
    382 H          50.8950   87.3080   94.2953 H        63        0    0.0000
    383 H          50.1505   87.9752   96.3997 H        63        0    0.0000
    384 H          48.7280   86.9400   96.3460 H        63        0    0.0000
    385 C          50.5242   85.9306   97.0703 C.3      64        0    0.0000
    386 C          50.2802   86.2171   98.5560 C.3      64        0    0.0000
    387 H          50.1697   84.9235   96.8182 H        64        0    0.0000
    388 H          51.5998   85.9490   96.8553 H        64        0    0.0000
    389 H          49.9717   87.2610   98.6921 H        64        0    0.0000
    390 H          49.4577   85.5943   98.9291 H        64        0    0.0000
    391 C          51.5537   85.9485   99.4298 C.3      65        0    0.0000
    392 C          51.2955   86.1868  100.9216 C.3      65        0    0.0000
    393 H          51.8838   84.9153   99.2655 H        65        0    0.0000
    394 H          52.3658   86.5980   99.0802 H        65        0    0.0000
    395 H          51.4376   85.2542  101.4816 H        65        0    0.0000
    396 H          52.0219   86.9066  101.3188 H        65        0    0.0000
    397 C          49.8490   86.7254  101.1955 C.3      66        0    0.0000
    398 C          49.5368   86.8157  102.6933 C.3      66        0    0.0000
    399 H          49.7452   87.7130  100.7294 H        66        0    0.0000
    400 H          49.1262   86.0655  100.6998 H        66        0    0.0000
    401 H          49.0970   87.7931  102.9276 H        66        0    0.0000
    402 H          48.7902   86.0603  102.9682 H        66        0    0.0000
    403 C          50.8133   86.6105  103.5797 C.3      67        0    0.0000
    404 C          50.4830   86.5819  105.0761 C.3      67        0    0.0000
    405 H          51.3020   85.6737  103.2844 H        67        0    0.0000
    406 H          51.5251   87.4178  103.3670 H        67        0    0.0000
    407 H          50.0780   85.6008  105.3532 H        67        0    0.0000
    408 H          51.3971   86.7234  105.6659 H        67        0    0.0000
    409 C          49.4468   87.6878  105.4770 C.3      68        0    0.0000
    410 C          49.1519   87.6897  106.9810 C.3      68        0    0.0000
    411 H          49.8365   88.6659  105.1688 H        68        0    0.0000
    412 H          48.5203   87.5257  104.9122 H        68        0    0.0000
    413 H          49.4520   88.6484  107.4220 H        68        0    0.0000
    414 H          48.0732   87.5878  107.1530 H        68        0    0.0000
    415 C          49.8951   86.5326  107.7336 C.3      69        0    0.0000
    416 C          49.8040   86.6777  109.2566 C.3      69        0    0.0000
    417 H          49.4645   85.5734  107.4206 H        69        0    0.0000
    418 H          50.9460   86.5238  107.4187 H        69        0    0.0000
    419 H          49.9380   87.7282  109.5431 H        69        0    0.0000
    420 H          48.8064   86.3813  109.6037 H        69        0    0.0000
    421 C          50.8764   85.8100  110.0013 C.3      70        0    0.0000
    422 C          50.7760   85.9440  111.5247 C.3      70        0    0.0000
    423 H          50.7491   84.7610  109.7067 H        70        0    0.0000
    424 H          51.8745   86.1136  109.6619 H        70        0    0.0000
    425 H          51.4312   85.2105  112.0109 H        70        0    0.0000
    426 H          51.1253   86.9354  111.8390 H        70        0    0.0000
    427 C          49.3117   85.7361  112.0442 C.3      71        0    0.0000
    428 C          49.1534   86.1423  113.5135 C.3      71        0    0.0000
    429 H          48.6275   86.3205  111.4166 H        71        0    0.0000
    430 H          49.0364   84.6822  111.9135 H        71        0    0.0000
    431 H          48.6362   87.1073  113.5834 H        71        0    0.0000
    432 H          48.5283   85.4110  114.0408 H        71        0    0.0000
    433 C          50.5323   86.2534  114.2510 C.3      72        0    0.0000
    434 C          50.3691   86.5458  115.7467 C.3      72        0    0.0000
    435 H          51.0857   85.3169  114.1090 H        72        0    0.0000
    436 H          51.1249   87.0447  113.7755 H        72        0    0.0000
    437 H          51.3512   86.5672  116.2351 H        72        0    0.0000
    438 H          49.9245   87.5385  115.8896 H        72        0    0.0000
    439 C          49.4704   85.4814  116.4655 C.3      73        0    0.0000
    440 C          49.3726   85.7280  117.9751 C.3      73        0    0.0000
    441 H          48.4701   85.5013  116.0155 H        73        0    0.0000
    442 H          49.8824   84.4830  116.2734 H        73        0    0.0000
    443 H          48.3202   85.7681  118.2822 H        73        0    0.0000
    444 H          49.8291   84.8943  118.5228 H        73        0    0.0000
    445 C          50.0759   87.0611  118.4060 C.3      74        0    0.0000
    446 C          50.1690   87.2025  119.9293 C.3      74        0    0.0000
    447 H          51.0793   87.0907  117.9634 H        74        0    0.0000
    448 H          49.5199   87.9070  117.9830 H        74        0    0.0000
    449 H          51.2052   87.0548  120.2581 H        74        0    0.0000
    450 H          49.8846   88.2183  120.2309 H        74        0    0.0000
    451 C          49.2501   86.1770  120.6785 C.3      75        0    0.0000
    452 C          49.4308   86.2382  122.1992 C.3      75        0    0.0000
    453 H          48.2048   86.3810  120.4154 H        75        0    0.0000
    454 H          49.4757   85.1675  120.3132 H        75        0    0.0000
    455 H          49.0547   87.1940  122.5846 H        75        0    0.0000
    456 H          48.8389   85.4497  122.6804 H        75        0    0.0000
    457 C          50.9304   86.0761  122.6263 C.3      76        0    0.0000
    458 C          51.1396   86.3358  124.1223 C.3      76        0    0.0000
    459 H          51.2634   85.0626  122.3703 H        76        0    0.0000
    460 H          51.5432   86.7678  122.0351 H        76        0    0.0000
    461 H          50.8066   87.3492  124.3783 H        76        0    0.0000
    462 H          50.5268   85.6441  124.7135 H        76        0    0.0000
    463 H          52.1823   86.2231  124.4192 H        76        0    0.0000
    464 H          49.2798   53.1887  -40.4349 H         0        0    0.0000
@<TRIPOS>BOND
     1     1     2      1
     2     1     3      1
     3     1     4      1
     4     1   464      H
     5     2     5      1
     6     2     6      1
     7     2     7      1
     8     7     8      1
     9     7     9      1
    10     7    10      1
    11     8    11      1
    12     8    12      1
    13     8    13      1
    14    13    14      1
    15    13    15      1
    16    13    16      1
    17    14    17      1
    18    14    18      1
    19    14    19      1
    20    19    20      1
    21    19    21      1
    22    19    22      1
    23    20    23      1
    24    20    24      1
    25    20    25      1
    26    25    26      1
    27    25    27      1
    28    25    28      1
    29    26    29      1
    30    26    30      1
    31    26    31      1
    32    31    32      1
    33    31    33      1
    34    31    34      1
    35    32    35      1
    36    32    36      1
    37    32    37      1
    38    37    38      1
    39    37    39      1
    40    37    40      1
    41    38    41      1
    42    38    42      1
    43    38    43      1
    44    43    44      1
    45    43    45      1
    46    43    46      1
    47    44    47      1
    48    44    48      1
    49    44    49      1
    50    49    50      1
    51    49    51      1
    52    49    52      1
    53    50    53      1
    54    50    54      1
    55    50    55      1
    56    55    56      1
    57    55    57      1
    58    55    58      1
    59    56    59      1
    60    56    60      1
    61    56    61      1
    62    61    62      1
    63    61    63      1
    64    61    64      1
    65    62    65      1
    66    62    66      1
    67    62    67      1
    68    67    68      1
    69    67    69      1
    70    67    70      1
    71    68    71      1
    72    68    72      1
    73    68    73      1
    74    73    74      1
    75    73    75      1
    76    73    76      1
    77    74    77      1
    78    74    78      1
    79    74    79      1
    80    79    80      1
    81    79    81      1
    82    79    82      1
    83    80    83      1
    84    80    84      1
    85    80    85      1
    86    85    86      1
    87    85    87      1
    88    85    88      1
    89    86    89      1
    90    86    90      1
    91    86    91      1
    92    91    92      1
    93    91    93      1
    94    91    94      1
    95    92    95      1
    96    92    96      1
    97    92    97      1
    98    97    98      1
    99    97    99      1
   100    97   100      1
   101    98   101      1
   102    98   102      1
   103    98   103      1
   104   103   104      1
   105   103   105      1
   106   103   106      1
   107   104   107      1
   108   104   108      1
   109   104   109      1
   110   109   110      1
   111   109   111      1
   112   109   112      1
   113   110   113      1
   114   110   114      1
   115   110   115      1
   116   115   116      1
   117   115   117      1
   118   115   118      1
   119   116   119      1
   120   116   120      1
   121   116   121      1
   122   121   122      1
   123   121   123      1
   124   121   124      1
   125   122   125      1
   126   122   126      1
   127   122   127      1
   128   127   128      1
   129   127   129      1
   130   127   130      1
   131   128   131      1
   132   128   132      1
   133   128   133      1
   134   133   134      1
   135   133   135      1
   136   133   136      1
   137   134   137      1
   138   134   138      1
   139   134   139      1
   140   139   140      1
   141   139   141      1
   142   139   142      1
   143   140   143      1
   144   140   144      1
   145   140   145      1
   146   145   146      1
   147   145   147      1
   148   145   148      1
   149   146   149      1
   150   146   150      1
   151   146   151      1
   152   151   152      1
   153   151   153      1
   154   151   154      1
   155   152   155      1
   156   152   156      1
   157   152   157      1
   158   157   158      1
   159   157   159      1
   160   157   160      1
   161   158   161      1
   162   158   162      1
   163   158   163      1
   164   163   164      1
   165   163   165      1
   166   163   166      1
   167   164   167      1
   168   164   168      1
   169   164   169      1
   170   169   170      1
   171   169   171      1
   172   169   172      1
   173   170   173      1
   174   170   174      1
   175   170   175      1
   176   175   176      1
   177   175   177      1
   178   175   178      1
   179   176   179      1
   180   176   180      1
   181   176   181      1
   182   181   182      1
   183   181   183      1
   184   181   184      1
   185   182   185      1
   186   182   186      1
   187   182   187      1
   188   187   188      1
   189   187   189      1
   190   187   190      1
   191   188   191      1
   192   188   192      1
   193   188   193      1
   194   193   194      1
   195   193   195      1
   196   193   196      1
   197   194   197      1
   198   194   198      1
   199   194   199      1
   200   199   200      1
   201   199   201      1
   202   199   202      1
   203   200   203      1
   204   200   204      1
   205   200   205      1
   206   205   206      1
   207   205   207      1
   208   205   208      1
   209   206   209      1
   210   206   210      1
   211   206   211      1
   212   211   212      1
   213   211   213      1
   214   211   214      1
   215   212   215      1
   216   212   216      1
   217   212   217      1
   218   217   218      1
   219   217   219      1
   220   217   220      1
   221   218   221      1
   222   218   222      1
   223   218   223      1
   224   223   224      1
   225   223   225      1
   226   223   226      1
   227   224   227      1
   228   224   228      1
   229   224   229      1
   230   229   230      1
   231   229   231      1
   232   229   232      1
   233   230   233      1
   234   230   234      1
   235   230   235      1
   236   235   236      1
   237   235   237      1
   238   235   238      1
   239   236   239      1
   240   236   240      1
   241   236   241      1
   242   241   242      1
   243   241   243      1
   244   241   244      1
   245   242   245      1
   246   242   246      1
   247   242   247      1
   248   247   248      1
   249   247   249      1
   250   247   250      1
   251   248   251      1
   252   248   252      1
   253   248   253      1
   254   253   254      1
   255   253   255      1
   256   253   256      1
   257   254   257      1
   258   254   258      1
   259   254   259      1
   260   259   260      1
   261   259   261      1
   262   259   262      1
   263   260   263      1
   264   260   264      1
   265   260   265      1
   266   265   266      1
   267   265   267      1
   268   265   268      1
   269   266   269      1
   270   266   270      1
   271   266   271      1
   272   271   272      1
   273   271   273      1
   274   271   274      1
   275   272   275      1
   276   272   276      1
   277   272   277      1
   278   277   278      1
   279   277   279      1
   280   277   280      1
   281   278   281      1
   282   278   282      1
   283   278   283      1
   284   283   284      1
   285   283   285      1
   286   283   286      1
   287   284   287      1
   288   284   288      1
   289   284   289      1
   290   289   290      1
   291   289   291      1
   292   289   292      1
   293   290   293      1
   294   290   294      1
   295   290   295      1
   296   295   296      1
   297   295   297      1
   298   295   298      1
   299   296   299      1
   300   296   300      1
   301   296   301      1
   302   301   302      1
   303   301   303      1
   304   301   304      1
   305   302   305      1
   306   302   306      1
   307   302   307      1
   308   307   308      1
   309   307   309      1
   310   307   310      1
   311   308   311      1
   312   308   312      1
   313   308   313      1
   314   313   314      1
   315   313   315      1
   316   313   316      1
   317   314   317      1
   318   314   318      1
   319   314   319      1
   320   319   320      1
   321   319   321      1
   322   319   322      1
   323   320   323      1
   324   320   324      1
   325   320   325      1
   326   325   326      1
   327   325   327      1
   328   325   328      1
   329   326   329      1
   330   326   330      1
   331   326   331      1
   332   331   332      1
   333   331   333      1
   334   331   334      1
   335   332   335      1
   336   332   336      1
   337   332   337      1
   338   337   338      1
   339   337   339      1
   340   337   340      1
   341   338   341      1
   342   338   342      1
   343   338   343      1
   344   343   344      1
   345   343   345      1
   346   343   346      1
   347   344   347      1
   348   344   348      1
   349   344   349      1
   350   349   350      1
   351   349   351      1
   352   349   352      1
   353   350   353      1
   354   350   354      1
   355   350   355      1
   356   355   356      1
   357   355   357      1
   358   355   358      1
   359   356   359      1
   360   356   360      1
   361   356   361      1
   362   361   362      1
   363   361   363      1
   364   361   364      1
   365   362   365      1
   366   362   366      1
   367   362   367      1
   368   367   368      1
   369   367   369      1
   370   367   370      1
   371   368   371      1
   372   368   372      1
   373   368   373      1
   374   373   374      1
   375   373   375      1
   376   373   376      1
   377   374   377      1
   378   374   378      1
   379   374   379      1
   380   379   380      1
   381   379   381      1
   382   379   382      1
   383   380   383      1
   384   380   384      1
   385   380   385      1
   386   385   386      1
   387   385   387      1
   388   385   388      1
   389   386   389      1
   390   386   390      1
   391   386   391      1
   392   391   392      1
   393   391   393      1
   394   391   394      1
   395   392   395      1
   396   392   396      1
   397   392   397      1
   398   397   398      1
   399   397   399      1
   400   397   400      1
   401   398   401      1
   402   398   402      1
   403   398   403      1
   404   403   404      1
   405   403   405      1
   406   403   406      1
   407   404   407      1
   408   404   408      1
   409   404   409      1
   410   409   410      1
   411   409   411      1
   412   409   412      1
   413   410   413      1
   414   410   414      1
   415   410   415      1
   416   415   416      1
   417   415   417      1
   418   415   418      1
   419   416   419      1
   420   416   420      1
   421   416   421      1
   422   421   422      1
   423   421   423      1
   424   421   424      1
   425   422   425      1
   426   422   426      1
   427   422   427      1
   428   427   428      1
   429   427   429      1
   430   427   430      1
   431   428   431      1
   432   428   432      1
   433   428   433      1
   434   433   434      1
   435   433   435      1
   436   433   436      1
   437   434   437      1
   438   434   438      1
   439   434   439      1
   440   439   440      1
   441   439   441      1
   442   439   442      1
   443   440   443      1
   444   440   444      1
   445   440   445      1
   446   445   446      1
   447   445   447      1
   448   445   448      1
   449   446   449      1
   450   446   450      1
   451   446   451      1
   452   451   452      1
   453   451   453      1
   454   451   454      1
   455   452   455      1
   456   452   456      1
   457   452   457      1
   458   457   458      1
   459   457   459      1
   460   457   460      1
   461   458   461      1
   462   458   462      1
   463   458   463      H
