###
### Created by PolyChef-cpp17 on Thu Feb 27 19:40:29 2025
###

@<TRIPOS>MOLECULE
NO_INFO
1118 1117 1 0 0
SMALL
USER_CHARGES


@<TRIPOS>ATOM
      1 C         189.2798   18.5487  -39.3449 C.3       0        0    0.0000
      2 C         187.8706   18.3882  -38.7641 C.3       0        0    0.0000
      3 H         189.9271   17.7366  -38.9913 H         0        0    0.0000
      4 H         189.7280   19.4855  -38.9913 H         0        0    0.0000
      5 H         187.3722   19.3641  -38.7109 H         0        0    0.0000
      6 H         187.2610   17.7588  -39.4243 H         0        0    0.0000
      7 C         187.8873   17.7507  -37.3321 C.3       1        0    0.0000
      8 C         189.1650   18.0939  -36.5583 C.3       1        0    0.0000
      9 H         187.0070   18.1007  -36.7788 H         1        0    0.0000
     10 H         187.7867   16.6625  -37.4282 H         1        0    0.0000
     11 H         190.0455   17.9139  -37.1873 H         1        0    0.0000
     12 H         189.1741   19.1605  -36.3015 H         1        0    0.0000
     13 C         189.3051   17.2558  -35.2410 C.3       2        0    0.0000
     14 C         190.2101   17.9401  -34.2106 C.3       2        0    0.0000
     15 H         188.3064   17.0948  -34.8164 H         2        0    0.0000
     16 H         189.7038   16.2653  -35.4928 H         2        0    0.0000
     17 H         191.2629   17.8129  -34.4913 H         2        0    0.0000
     18 H         190.0158   19.0197  -34.1974 H         2        0    0.0000
     19 C         190.0004   17.3713  -32.7649 C.3       3        0    0.0000
     20 C         190.6264   18.2683  -31.6914 C.3       3        0    0.0000
     21 H         188.9245   17.2598  -32.5814 H         3        0    0.0000
     22 H         190.4345   16.3651  -32.7144 H         3        0    0.0000
     23 H         191.7154   18.3043  -31.8195 H         3        0    0.0000
     24 H         190.2620   19.2972  -31.8015 H         3        0    0.0000
     25 C         190.3047   17.7709  -30.2400 C.3       4        0    0.0000
     26 C         190.9081   18.6830  -29.1662 C.3       4        0    0.0000
     27 H         189.2157   17.7160  -30.1183 H         4        0    0.0000
     28 H         190.6866   16.7491  -30.1235 H         4        0    0.0000
     29 H         191.9978   18.7323  -29.2835 H         4        0    0.0000
     30 H         190.5317   19.7064  -29.2870 H         4        0    0.0000
     31 C         190.5779   18.1912  -27.7148 C.3       5        0    0.0000
     32 C         191.1921   19.0961  -26.6411 C.3       5        0    0.0000
     33 H         189.4881   18.1510  -27.5945 H         5        0    0.0000
     34 H         190.9459   17.1645  -27.5971 H         5        0    0.0000
     35 H         192.2815   19.1392  -26.7637 H         5        0    0.0000
     36 H         190.8212   20.1221  -26.7566 H         5        0    0.0000
     37 C         190.8662   18.6014  -25.1897 C.3       6        0    0.0000
     38 C         191.4161   19.5473  -24.1165 C.3       6        0    0.0000
     39 H         189.7784   18.5054  -25.0848 H         6        0    0.0000
     40 H         191.2855   17.5965  -25.0561 H         6        0    0.0000
     41 H         192.5050   19.6369  -24.2161 H         6        0    0.0000
     42 H         191.0032   20.5542  -24.2551 H         6        0    0.0000
     43 C         191.0800   19.0588  -22.6653 C.3       7        0    0.0000
     44 C         192.2173   19.3445  -21.6783 C.3       7        0    0.0000
     45 H         190.1588   19.5518  -22.3307 H         7        0    0.0000
     46 H         190.8687   17.9827  -22.6945 H         7        0    0.0000
     47 H         193.1692   18.9826  -22.0863 H         7        0    0.0000
     48 H         192.3273   20.4265  -21.5342 H         7        0    0.0000
     49 C         191.9766   18.6709  -20.2834 C.3       8        0    0.0000
     50 C         192.0427   19.6801  -19.1318 C.3       8        0    0.0000
     51 H         190.9976   18.1758  -20.2940 H         8        0    0.0000
     52 H         192.7263   17.8834  -20.1370 H         8        0    0.0000
     53 H         193.0872   19.8587  -18.8477 H         8        0    0.0000
     54 H         191.6343   20.6459  -19.4542 H         8        0    0.0000
     55 C         191.2517   19.1932  -17.8690 C.3       9        0    0.0000
     56 C         192.0939   19.2701  -16.5908 C.3       9        0    0.0000
     57 H         190.3472   19.8045  -17.7609 H         9        0    0.0000
     58 H         190.9169   18.1621  -18.0374 H         9        0    0.0000
     59 H         193.1025   18.8829  -16.7810 H         9        0    0.0000
     60 H         192.2112   20.3157  -16.2800 H         9        0    0.0000
     61 C         191.4562   18.4605  -15.4096 C.3      10        0    0.0000
     62 C         191.8141   19.0505  -14.0411 C.3      10        0    0.0000
     63 H         190.3669   18.4446  -15.5391 H        10        0    0.0000
     64 H         191.7959   17.4191  -15.4707 H        10        0    0.0000
     65 H         192.8906   18.9470  -13.8567 H        10        0    0.0000
     66 H         191.5937   20.1251  -14.0254 H        10        0    0.0000
     67 C         191.0324   18.3573  -12.8724 C.3      11        0    0.0000
     68 C         191.5250   18.8120  -11.4941 C.3      11        0    0.0000
     69 H         189.9635   18.5788  -12.9817 H        11        0    0.0000
     70 H         191.1405   17.2700  -12.9707 H        11        0    0.0000
     71 H         192.6019   18.6256  -11.3992 H        11        0    0.0000
     72 H         191.3813   19.8937  -11.3813 H        11        0    0.0000
     73 C         190.7804   18.0788  -10.3255 C.3      12        0    0.0000
     74 C         191.2599   18.5469   -8.9471 C.3      12        0    0.0000
     75 H         189.7023   18.2540  -10.4282 H        12        0    0.0000
     76 H         190.9353   16.9978  -10.4306 H        12        0    0.0000
     77 H         192.3371   18.3670   -8.8425 H        12        0    0.0000
     78 H         191.1097   19.6286   -8.8439 H        12        0    0.0000
     79 C         190.5103   17.8189   -7.7785 C.3      13        0    0.0000
     80 C         191.0017   18.2746   -6.4002 C.3      13        0    0.0000
     81 H         189.4342   18.0089   -7.8761 H        13        0    0.0000
     82 H         190.6503   16.7364   -7.8888 H        13        0    0.0000
     83 H         192.0800   18.0957   -6.3071 H        13        0    0.0000
     84 H         190.8506   19.3552   -6.2854 H        13        0    0.0000
     85 C         190.2639   17.5344   -5.2318 C.3      14        0    0.0000
     86 C         190.8164   17.9245   -3.8564 C.3      14        0    0.0000
     87 H         189.1930   17.7663   -5.2866 H        14        0    0.0000
     88 H         190.3600   16.4520   -5.3825 H        14        0    0.0000
     89 H         191.8849   17.6829   -3.7979 H        14        0    0.0000
     90 H         190.7301   19.0084   -3.7100 H        14        0    0.0000
     91 C         190.0686   17.1956   -2.6872 C.3      15        0    0.0000
     92 C         190.4080   17.7947   -1.3179 C.3      15        0    0.0000
     93 H         188.9880   17.2557   -2.8667 H        15        0    0.0000
     94 H         190.3327   16.1310   -2.7080 H        15        0    0.0000
     95 H         191.2104   17.2167   -0.8429 H        15        0    0.0000
     96 H         190.7853   18.8178   -1.4380 H        15        0    0.0000
     97 C         189.1689   17.8225   -0.3580 C.3      16        0    0.0000
     98 C         189.1716   19.0509    0.5584 C.3      16        0    0.0000
     99 H         188.2533   17.8057   -0.9620 H        16        0    0.0000
    100 H         189.1666   16.9047    0.2431 H        16        0    0.0000
    101 H         188.8720   18.7633    1.5739 H        16        0    0.0000
    102 H         190.1860   19.4619    0.6337 H        16        0    0.0000
    103 C         188.2073   20.1760    0.0467 C.3      17        0    0.0000
    104 C         188.0565   21.3166    1.0592 C.3      17        0    0.0000
    105 H         188.5914   20.5654   -0.9042 H        17        0    0.0000
    106 H         187.2275   19.7314   -0.1677 H        17        0    0.0000
    107 H         188.1289   20.9245    2.0812 H        17        0    0.0000
    108 H         188.8755   22.0367    0.9394 H        17        0    0.0000
    109 C         186.6921   22.0727    0.9036 C.3      18        0    0.0000
    110 C         186.0784   22.4481    2.2569 C.3      18        0    0.0000
    111 H         186.8545   22.9749    0.3010 H        18        0    0.0000
    112 H         185.9982   21.4375    0.3391 H        18        0    0.0000
    113 H         186.4221   21.7518    3.0319 H        18        0    0.0000
    114 H         186.4161   23.4473    2.5589 H        18        0    0.0000
    115 C         184.5112   22.4331    2.2232 C.3      19        0    0.0000
    116 C         183.9026   22.1983    3.6101 C.3      19        0    0.0000
    117 H         184.1572   23.3874    1.8137 H        19        0    0.0000
    118 H         184.1799   21.6504    1.5296 H        19        0    0.0000
    119 H         184.3447   21.3051    4.0686 H        19        0    0.0000
    120 H         184.1378   23.0412    4.2718 H        19        0    0.0000
    121 C         182.3462   22.0195    3.5535 C.3      20        0    0.0000
    122 C         181.6198   22.9369    4.5433 C.3      20        0    0.0000
    123 H         182.0040   22.2230    2.5312 H        20        0    0.0000
    124 H         182.1029   20.9708    3.7643 H        20        0    0.0000
    125 H         181.6890   22.5254    5.5579 H        20        0    0.0000
    126 H         182.1037   23.9211    4.5688 H        20        0    0.0000
    127 C         180.1073   23.1268    4.1772 C.3      21        0    0.0000
    128 C         179.3622   23.9792    5.2102 C.3      21        0    0.0000
    129 H         180.0392   23.5921    3.1860 H        21        0    0.0000
    130 H         179.6368   22.1392    4.0946 H        21        0    0.0000
    131 H         179.4218   23.5087    6.1995 H        21        0    0.0000
    132 H         179.8389   24.9632    5.3002 H        21        0    0.0000
    133 C         177.8532   24.1810    4.8367 C.3      22        0    0.0000
    134 C         177.3741   25.6115    5.1072 C.3      22        0    0.0000
    135 H         177.7147   23.9318    3.7774 H        22        0    0.0000
    136 H         177.2486   23.4671    5.4098 H        22        0    0.0000
    137 H         177.3546   25.8039    6.1871 H        22        0    0.0000
    138 H         178.0771   26.3323    4.6714 H        22        0    0.0000
    139 C         175.9457   25.8807    4.5201 C.3      23        0    0.0000
    140 C         175.3048   27.1430    5.1073 C.3      23        0    0.0000
    141 H         176.0229   25.9704    3.4294 H        23        0    0.0000
    142 H         175.3110   25.0085    4.7203 H        23        0    0.0000
    143 H         175.2720   27.0740    6.2017 H        23        0    0.0000
    144 H         175.9148   28.0221    4.8652 H        23        0    0.0000
    145 C         173.8498   27.3746    4.5718 C.3      24        0    0.0000
    146 C         173.2664   28.7137    5.0360 C.3      24        0    0.0000
    147 H         173.8653   27.3308    3.4757 H        24        0    0.0000
    148 H         173.2124   26.5487    4.9112 H        24        0    0.0000
    149 H         173.1995   28.7356    6.1308 H        24        0    0.0000
    150 H         173.9322   29.5354    4.7446 H        24        0    0.0000
    151 C         171.8423   28.9808    4.4374 C.3      25        0    0.0000
    152 C         171.2999   30.3615    4.8227 C.3      25        0    0.0000
    153 H         171.8948   28.8885    3.3455 H        25        0    0.0000
    154 H         171.1590   28.1971    4.7873 H        25        0    0.0000
    155 H         171.2047   30.4375    5.9129 H        25        0    0.0000
    156 H         172.0052   31.1426    4.5128 H        25        0    0.0000
    157 C         169.9040   30.6541    4.1720 C.3      26        0    0.0000
    158 C         169.3541   32.0282    4.5703 C.3      26        0    0.0000
    159 H         170.0020   30.5900    3.0812 H        26        0    0.0000
    160 H         169.2019   29.8665    4.4721 H        26        0    0.0000
    161 H         169.4150   32.1568    5.6581 H        26        0    0.0000
    162 H         169.9662   32.8220    4.1245 H        26        0    0.0000
    163 C         167.8653   32.2253    4.1208 C.3      27        0    0.0000
    164 C         167.2926   33.5702    4.5816 C.3      27        0    0.0000
    165 H         167.8130   32.1489    3.0276 H        27        0    0.0000
    166 H         167.2624   31.4019    4.5233 H        27        0    0.0000
    167 H         167.8117   33.9098    5.4865 H        27        0    0.0000
    168 H         167.4643   34.3350    3.8141 H        27        0    0.0000
    169 C         165.7558   33.4904    4.8806 C.3      28        0    0.0000
    170 C         165.1789   34.8403    5.3209 C.3      28        0    0.0000
    171 H         165.2384   33.1357    3.9806 H        28        0    0.0000
    172 H         165.5858   32.7366    5.6594 H        28        0    0.0000
    173 H         165.1292   34.8891    6.4157 H        28        0    0.0000
    174 H         165.8396   35.6548    4.9989 H        28        0    0.0000
    175 C         163.7455   35.0922    4.7383 C.3      29        0    0.0000
    176 C         163.1530   36.4249    5.2092 C.3      29        0    0.0000
    177 H         163.8003   35.0711    3.6428 H        29        0    0.0000
    178 H         163.0917   34.2634    5.0370 H        29        0    0.0000
    179 H         163.6838   37.2605    4.7365 H        29        0    0.0000
    180 H         162.1039   36.5013    4.8974 H        29        0    0.0000
    181 C         163.2309   36.5927    6.7659 C.3      30        0    0.0000
    182 C         162.6911   37.9494    7.2317 C.3      30        0    0.0000
    183 H         162.6645   35.7803    7.2379 H        30        0    0.0000
    184 H         164.2746   36.4743    7.0825 H        30        0    0.0000
    185 H         161.9087   37.8038    7.9868 H        30        0    0.0000
    186 H         163.4900   38.5269    7.7131 H        30        0    0.0000
    187 C         162.1010   38.7919    6.0486 C.3      31        0    0.0000
    188 C         161.2086   39.9371    6.5396 C.3      31        0    0.0000
    189 H         162.9299   39.1907    5.4507 H        31        0    0.0000
    190 H         161.5298   38.1255    5.3904 H        31        0    0.0000
    191 H         161.4381   40.1704    7.5867 H        31        0    0.0000
    192 H         161.4127   40.8472    5.9620 H        31        0    0.0000
    193 C         159.6835   39.5946    6.4208 C.3      32        0    0.0000
    194 C         158.7905   40.7815    6.7990 C.3      32        0    0.0000
    195 H         159.4715   39.2771    5.3923 H        32        0    0.0000
    196 H         159.4623   38.7364    7.0674 H        32        0    0.0000
    197 H         159.2934   41.4074    7.5465 H        32        0    0.0000
    198 H         158.6173   41.4166    5.9213 H        32        0    0.0000
    199 C         157.4052   40.3237    7.3726 C.3      33        0    0.0000
    200 C         156.5117   41.5105    7.7493 C.3      33        0    0.0000
    201 H         156.9029   39.6968    6.6255 H        33        0    0.0000
    202 H         157.5784   39.6895    8.2509 H        33        0    0.0000
    203 H         157.0426   42.1765    8.4408 H        33        0    0.0000
    204 H         156.2786   42.1041    6.8566 H        33        0    0.0000
    205 C         155.1689   41.0546    8.4177 C.3      34        0    0.0000
    206 C         154.2724   42.2412    8.7883 C.3      34        0    0.0000
    207 H         154.6404   40.3847    7.7282 H        34        0    0.0000
    208 H         155.4019   40.4652    9.3131 H        34        0    0.0000
    209 H         153.8414   42.6845    7.8820 H        34        0    0.0000
    210 H         153.4304   41.8990    9.4027 H        34        0    0.0000
    211 C         155.0517   43.3524    9.5728 C.3      35        0    0.0000
    212 C         154.3093   44.6932    9.5717 C.3      35        0    0.0000
    213 H         155.2113   43.0116   10.6033 H        35        0    0.0000
    214 H         156.0451   43.4720    9.1231 H        35        0    0.0000
    215 H         153.2466   44.5346    9.3503 H        35        0    0.0000
    216 H         154.3587   45.1514   10.5673 H        35        0    0.0000
    217 C         154.8994   45.6981    8.5232 C.3      36        0    0.0000
    218 C         154.3456   47.1160    8.7020 C.3      36        0    0.0000
    219 H         155.9924   45.7065    8.6177 H        36        0    0.0000
    220 H         154.6732   45.3303    7.5147 H        36        0    0.0000
    221 H         155.1034   47.7603    9.1648 H        36        0    0.0000
    222 H         154.1134   47.5553    7.7239 H        36        0    0.0000
    223 C         153.0520   47.1413    9.5871 C.3      37        0    0.0000
    224 C         152.4548   48.5481    9.7028 C.3      37        0    0.0000
    225 H         152.3143   46.4538    9.1550 H        37        0    0.0000
    226 H         153.2978   46.7539   10.5836 H        37        0    0.0000
    227 H         151.6116   48.5423   10.4046 H        37        0    0.0000
    228 H         153.2005   49.2409   10.1120 H        37        0    0.0000
    229 C         151.9584   49.0982    8.3213 C.3      38        0    0.0000
    230 C         151.1789   50.4100    8.4646 C.3      38        0    0.0000
    231 H         152.8265   49.2460    7.6670 H        38        0    0.0000
    232 H         151.3294   48.3372    7.8430 H        38        0    0.0000
    233 H         151.8428   51.2043    8.8279 H        38        0    0.0000
    234 H         150.8057   50.7348    7.4854 H        38        0    0.0000
    235 C         149.9659   50.2759    9.4486 C.3      39        0    0.0000
    236 C         149.2620   51.6159    9.6889 C.3      39        0    0.0000
    237 H         149.2566   49.5466    9.0380 H        39        0    0.0000
    238 H         150.3259   49.8642   10.3996 H        39        0    0.0000
    239 H         148.2706   51.4467   10.1271 H        39        0    0.0000
    240 H         149.8287   52.2139   10.4133 H        39        0    0.0000
    241 C         149.0962   52.4451    8.3689 C.3      40        0    0.0000
    242 C         148.3727   53.7754    8.6055 C.3      40        0    0.0000
    243 H         150.0889   52.6280    7.9391 H        40        0    0.0000
    244 H         148.5433   51.8409    7.6389 H        40        0    0.0000
    245 H         149.0248   54.4656    9.1549 H        40        0    0.0000
    246 H         148.1436   54.2549    7.6458 H        40        0    0.0000
    247 C         147.0396   53.5918    9.4096 C.3      41        0    0.0000
    248 C         146.4410   54.9305    9.8553 C.3      41        0    0.0000
    249 H         146.3211   53.0482    8.7837 H        41        0    0.0000
    250 H         147.2380   52.9590   10.2835 H        41        0    0.0000
    251 H         145.3574   54.9337    9.6839 H        41        0    0.0000
    252 H         146.5899   55.0689   10.9333 H        41        0    0.0000
    253 C         147.0761   56.1469    9.0973 C.3      42        0    0.0000
    254 C         146.5733   57.4919    9.6332 C.3      42        0    0.0000
    255 H         148.1678   56.0898    9.1890 H        42        0    0.0000
    256 H         146.8446   56.0576    8.0286 H        42        0    0.0000
    257 H         146.4203   58.1938    8.8040 H        42        0    0.0000
    258 H         145.5988   57.3623   10.1201 H        42        0    0.0000
    259 C         147.5699   58.1323   10.6599 C.3      43        0    0.0000
    260 C         147.0997   59.5080   11.1452 C.3      43        0    0.0000
    261 H         147.6850   57.4518   11.5126 H        43        0    0.0000
    262 H         148.5571   58.2168   10.1889 H        43        0    0.0000
    263 H         146.7456   60.1056   10.2961 H        43        0    0.0000
    264 H         146.2483   59.3952   11.8279 H        43        0    0.0000
    265 C         148.2359   60.2988   11.8808 C.3      44        0    0.0000
    266 C         147.7690   61.6791   12.3560 C.3      44        0    0.0000
    267 H         148.5842   59.7049   12.7348 H        44        0    0.0000
    268 H         149.0904   60.4043   11.2009 H        44        0    0.0000
    269 H         146.8805   61.9902   11.7926 H        44        0    0.0000
    270 H         147.4727   61.6332   13.4113 H        44        0    0.0000
    271 C         148.8806   62.7719   12.1904 C.3      45        0    0.0000
    272 C         148.3992   64.1607   12.6245 C.3      45        0    0.0000
    273 H         149.7575   62.4764   12.7797 H        45        0    0.0000
    274 H         149.1997   62.7954   11.1410 H        45        0    0.0000
    275 H         148.2775   64.1929   13.7144 H        45        0    0.0000
    276 H         149.1521   64.9166   12.3692 H        45        0    0.0000
    277 C         147.0390   64.5550   11.9523 C.3      46        0    0.0000
    278 C         146.5700   65.9539   12.3673 C.3      46        0    0.0000
    279 H         147.1556   64.5052   10.8626 H        46        0    0.0000
    280 H         146.2816   63.8088   12.2225 H        46        0    0.0000
    281 H         145.7010   66.2524   11.7680 H        46        0    0.0000
    282 H         146.2428   65.9457   13.4144 H        46        0    0.0000
    283 C         147.6952   67.0322   12.1980 C.3      47        0    0.0000
    284 C         147.3760   68.3280   12.9517 C.3      47        0    0.0000
    285 H         148.6436   66.6128   12.5558 H        47        0    0.0000
    286 H         147.8265   67.2414   11.1291 H        47        0    0.0000
    287 H         146.7667   68.9888   12.3226 H        47        0    0.0000
    288 H         146.7797   68.1062   13.8454 H        47        0    0.0000
    289 C         148.6711   69.0970   13.3862 C.3      48        0    0.0000
    290 C         148.3526   70.4315   14.0693 C.3      48        0    0.0000
    291 H         149.2519   68.4575   14.0625 H        48        0    0.0000
    292 H         149.2952   69.2674   12.5003 H        48        0    0.0000
    293 H         147.3654   70.3842   14.5455 H        48        0    0.0000
    294 H         149.0785   70.6281   14.8679 H        48        0    0.0000
    295 C         148.3709   71.6333   13.0628 C.3      49        0    0.0000
    296 C         148.1694   72.9812   13.7639 C.3      49        0    0.0000
    297 H         149.3265   71.6287   12.5240 H        49        0    0.0000
    298 H         147.5856   71.4783   12.3127 H        49        0    0.0000
    299 H         149.0851   73.5814   13.6955 H        49        0    0.0000
    300 H         147.3798   73.5527   13.2603 H        49        0    0.0000
    301 C         147.7866   72.8137   15.2748 C.3      50        0    0.0000
    302 C         147.7705   74.1519   16.0218 C.3      50        0    0.0000
    303 H         146.8015   72.3352   15.3390 H        50        0    0.0000
    304 H         148.5012   72.1280   15.7467 H        50        0    0.0000
    305 H         146.8635   74.2302   16.6338 H        50        0    0.0000
    306 H         148.6218   74.2079   16.7115 H        50        0    0.0000
    307 C         147.8291   75.3776   15.0462 C.3      51        0    0.0000
    308 C         147.8570   76.7148   15.7946 C.3      51        0    0.0000
    309 H         148.7194   75.2827   14.4122 H        51        0    0.0000
    310 H         146.9605   75.3390   14.3773 H        51        0    0.0000
    311 H         147.2842   76.6361   16.7269 H        51        0    0.0000
    312 H         148.8867   76.9660   16.0778 H        51        0    0.0000
    313 C         147.2683   77.8878   14.9374 C.3      52        0    0.0000
    314 C         147.3172   79.2292   15.6771 C.3      52        0    0.0000
    315 H         147.8303   77.9557   13.9977 H        52        0    0.0000
    316 H         146.2330   77.6441   14.6683 H        52        0    0.0000
    317 H         147.0388   80.0441   14.9973 H        52        0    0.0000
    318 H         146.5842   79.2356   16.4934 H        52        0    0.0000
    319 C         148.7369   79.5291   16.2704 C.3      53        0    0.0000
    320 C         148.7816   80.8628   17.0241 C.3      53        0    0.0000
    321 H         149.0204   78.7084   16.9410 H        53        0    0.0000
    322 H         149.4680   79.5345   15.4525 H        53        0    0.0000
    323 H         148.2477   80.7738   17.9784 H        53        0    0.0000
    324 H         149.8193   81.1232   17.2668 H        53        0    0.0000
    325 C         148.1469   82.0339   16.1975 C.3      54        0    0.0000
    326 C         147.9085   83.2846   17.0507 C.3      54        0    0.0000
    327 H         148.8097   82.2729   15.3566 H        54        0    0.0000
    328 H         147.2002   81.6882   15.7640 H        54        0    0.0000
    329 H         147.7420   84.1550   16.4041 H        54        0    0.0000
    330 H         147.0000   83.1613   17.6532 H        54        0    0.0000
    331 C         149.1120   83.5890   18.0079 C.3      55        0    0.0000
    332 C         148.9042   84.8781   18.8105 C.3      55        0    0.0000
    333 H         149.2460   82.7394   18.6889 H        55        0    0.0000
    334 H         150.0293   83.6616   17.4105 H        55        0    0.0000
    335 H         149.6404   84.9390   19.6216 H        55        0    0.0000
    336 H         149.0700   85.7519   18.1683 H        55        0    0.0000
    337 C         147.4654   84.9692   19.4261 C.3      56        0    0.0000
    338 C         147.2413   86.2803   20.1875 C.3      56        0    0.0000
    339 H         146.7287   84.8723   18.6189 H        56        0    0.0000
    340 H         147.3127   84.1142   20.0963 H        56        0    0.0000
    341 H         147.1146   87.1092   19.4801 H        56        0    0.0000
    342 H         146.3155   86.2217   20.7731 H        56        0    0.0000
    343 C         148.4295   86.6172   21.1530 C.3      57        0    0.0000
    344 C         148.3479   88.0476   21.6974 C.3      57        0    0.0000
    345 H         148.4262   85.8985   21.9819 H        57        0    0.0000
    346 H         149.3744   86.4729   20.6146 H        57        0    0.0000
    347 H         148.5992   88.7658   20.9071 H        57        0    0.0000
    348 H         147.3213   88.2722   22.0124 H        57        0    0.0000
    349 C         149.3109   88.2764   22.9130 C.3      58        0    0.0000
    350 C         149.2814   89.7250   23.4127 C.3      58        0    0.0000
    351 H         149.0265   87.5933   23.7229 H        58        0    0.0000
    352 H         150.3301   88.0026   22.6132 H        58        0    0.0000
    353 H         148.2854   90.1571   23.2552 H        58        0    0.0000
    354 H         149.4702   89.7542   24.4930 H        58        0    0.0000
    355 C         150.3425   90.6245   22.6899 C.3      59        0    0.0000
    356 C         150.4213   92.0303   23.2952 C.3      59        0    0.0000
    357 H         151.3218   90.1337   22.7498 H        59        0    0.0000
    358 H         150.0863   90.6873   21.6250 H        59        0    0.0000
    359 H         150.4955   92.7798   22.4975 H        59        0    0.0000
    360 H         149.5022   92.2524   23.8516 H        59        0    0.0000
    361 C         151.6472   92.1946   24.2584 C.3      60        0    0.0000
    362 C         151.8021   93.6342   24.7611 C.3      60        0    0.0000
    363 H         151.5238   91.5109   25.1075 H        60        0    0.0000
    364 H         152.5562   91.8806   23.7306 H        60        0    0.0000
    365 H         150.9646   93.8947   25.4200 H        60        0    0.0000
    366 H         152.7157   93.7268   25.3613 H        60        0    0.0000
    367 C         151.8621   94.6704   23.5864 C.3      61        0    0.0000
    368 C         151.6305   96.1073   24.0669 C.3      61        0    0.0000
    369 H         152.8395   94.5912   23.0945 H        61        0    0.0000
    370 H         151.1091   94.3986   22.8363 H        61        0    0.0000
    371 H         152.3321   96.3517   24.8741 H        61        0    0.0000
    372 H         151.8302   96.8134   23.2514 H        61        0    0.0000
    373 C         150.1677   96.3325   24.5834 C.3      62        0    0.0000
    374 C         149.9084   97.7911   24.9760 C.3      62        0    0.0000
    375 H         149.4646   96.0230   23.8003 H        62        0    0.0000
    376 H         149.9911   95.6744   25.4433 H        62        0    0.0000
    377 H         149.1604   98.2336   24.3065 H        62        0    0.0000
    378 H         149.4917   97.8395   25.9897 H        62        0    0.0000
    379 C         151.2114   98.6612   24.9233 C.3      63        0    0.0000
    380 C         150.9285  100.1466   25.1734 C.3      63        0    0.0000
    381 H         151.9201   98.2822   25.6701 H        63        0    0.0000
    382 H         151.6857   98.5285   23.9430 H        63        0    0.0000
    383 H         150.3234  100.5572   24.3556 H        63        0    0.0000
    384 H         150.3408  100.2681   26.0918 H        63        0    0.0000
    385 C         152.2445  100.9888   25.3005 C.3      64        0    0.0000
    386 C         151.9650  102.4529   25.6572 C.3      64        0    0.0000
    387 H         152.8848  100.5311   26.0647 H        64        0    0.0000
    388 H         152.7943  100.9309   24.3529 H        64        0    0.0000
    389 H         151.3476  102.9185   24.8789 H        64        0    0.0000
    390 H         151.3910  102.5098   26.5904 H        64        0    0.0000
    391 C         153.2825  103.2861   25.8227 C.3      65        0    0.0000
    392 C         153.0039  104.7801   26.0213 C.3      65        0    0.0000
    393 H         153.8453  102.8915   26.6778 H        65        0    0.0000
    394 H         153.9101  103.1351   24.9357 H        65        0    0.0000
    395 H         152.4085  105.1662   25.1847 H        65        0    0.0000
    396 H         152.4081  104.9342   26.9295 H        65        0    0.0000
    397 C         154.3224  105.6205   26.1333 C.3      66        0    0.0000
    398 C         154.0439  107.1138   26.3375 C.3      66        0    0.0000
    399 H         154.9197  105.2318   26.9674 H        66        0    0.0000
    400 H         154.9164  105.4696   25.2233 H        66        0    0.0000
    401 H         153.4399  107.5007   25.5074 H        66        0    0.0000
    402 H         153.4567  107.2654   27.2517 H        66        0    0.0000
    403 C         155.3624  107.9557   26.4384 C.3      67        0    0.0000
    404 C         155.0838  109.4489   26.6433 C.3      67        0    0.0000
    405 H         155.9666  107.5685   27.2681 H        67        0    0.0000
    406 H         155.9492  107.8046   25.5239 H        67        0    0.0000
    407 H         154.7136  109.6263   27.6607 H        67        0    0.0000
    408 H         156.0135  110.0224   26.5418 H        67        0    0.0000
    409 C         154.0338  110.0033   25.6197 C.3      68        0    0.0000
    410 C         153.5144  111.3902   26.0142 C.3      68        0    0.0000
    411 H         154.4962  110.0435   24.6257 H        68        0    0.0000
    412 H         153.1992  109.2947   25.5505 H        68        0    0.0000
    413 H         153.2520  111.9631   25.1161 H        68        0    0.0000
    414 H         152.5955  111.2936   26.6057 H        68        0    0.0000
    415 C         154.5660  112.2047   26.8438 C.3      69        0    0.0000
    416 C         154.1181  113.6495   27.0907 C.3      69        0    0.0000
    417 H         154.7340  111.6943   27.8002 H        69        0    0.0000
    418 H         155.5236  112.1940   26.3086 H        69        0    0.0000
    419 H         153.5164  114.0064   26.2457 H        69        0    0.0000
    420 H         153.4748  113.6975   27.9781 H        69        0    0.0000
    421 C         155.3315  114.6213   27.2931 C.3      70        0    0.0000
    422 C         155.2499  115.3838   28.6200 C.3      70        0    0.0000
    423 H         156.2610  114.0401   27.2497 H        70        0    0.0000
    424 H         155.3623  115.3279   26.4544 H        70        0    0.0000
    425 H         154.6366  116.2853   28.4987 H        70        0    0.0000
    426 H         154.7547  114.7658   29.3792 H        70        0    0.0000
    427 C         156.6636  115.8023   29.1527 C.3      71        0    0.0000
    428 C         156.8809  117.3184   29.0943 C.3      71        0    0.0000
    429 H         156.7724  115.4462   30.1846 H        71        0    0.0000
    430 H         157.4309  115.2893   28.5598 H        71        0    0.0000
    431 H         156.2518  117.7587   28.3108 H        71        0    0.0000
    432 H         156.5733  117.7792   30.0412 H        71        0    0.0000
    433 C         158.3765  117.6938   28.8120 C.3      72        0    0.0000
    434 C         158.8132  118.9510   29.5722 C.3      72        0    0.0000
    435 H         159.0129  116.8451   29.0915 H        72        0    0.0000
    436 H         158.5060  117.8427   27.7329 H        72        0    0.0000
    437 H         158.2122  119.8114   29.2529 H        72        0    0.0000
    438 H         158.6333  118.8223   30.6467 H        72        0    0.0000
    439 C         160.3291  119.2830   29.3499 C.3      73        0    0.0000
    440 C         160.7127  120.6541   29.9174 C.3      73        0    0.0000
    441 H         160.9355  118.4985   29.8193 H        73        0    0.0000
    442 H         160.5450  119.2471   28.2749 H        73        0    0.0000
    443 H         160.3244  120.7608   30.9379 H        73        0    0.0000
    444 H         161.8042  120.7413   29.9850 H        73        0    0.0000
    445 C         160.1647  121.8337   29.0424 C.3      74        0    0.0000
    446 C         160.6269  123.2016   29.5565 C.3      74        0    0.0000
    447 H         160.4964  121.6894   28.0067 H        74        0    0.0000
    448 H         159.0687  121.7866   29.0317 H        74        0    0.0000
    449 H         160.5977  123.2209   30.6530 H        74        0    0.0000
    450 H         161.6696  123.3800   29.2659 H        74        0    0.0000
    451 C         159.7417  124.3729   29.0069 C.3      75        0    0.0000
    452 C         160.1296  125.7270   29.6111 C.3      75        0    0.0000
    453 H         159.8385  124.4068   27.9147 H        75        0    0.0000
    454 H         158.6891  124.1522   29.2232 H        75        0    0.0000
    455 H         160.6806  125.5769   30.5479 H        75        0    0.0000
    456 H         160.8038  126.2629   28.9315 H        75        0    0.0000
    457 C         158.8802  126.6290   29.8987 C.3      76        0    0.0000
    458 C         159.1557  127.6733   30.9862 C.3      76        0    0.0000
    459 H         158.5808  127.1257   28.9675 H        76        0    0.0000
    460 H         158.0420  125.9873   30.1972 H        76        0    0.0000
    461 H         159.7470  127.2268   31.7953 H        76        0    0.0000
    462 H         159.7545  128.4955   30.5752 H        76        0    0.0000
    463 C         157.8354  128.2633   31.5915 C.3      77        0    0.0000
    464 C         158.1059  129.4268   32.5517 C.3      77        0    0.0000
    465 H         157.1879  128.5957   30.7707 H        77        0    0.0000
    466 H         157.2969  127.4624   32.1131 H        77        0    0.0000
    467 H         158.7033  129.0800   33.4040 H        77        0    0.0000
    468 H         158.6967  130.2013   32.0472 H        77        0    0.0000
    469 C         156.7828  130.0717   33.0911 C.3      78        0    0.0000
    470 C         156.8112  131.6024   33.0187 C.3      78        0    0.0000
    471 H         155.9375  129.6832   32.5097 H        78        0    0.0000
    472 H         156.6281  129.7470   34.1275 H        78        0    0.0000
    473 H         157.3323  132.0108   33.8935 H        78        0    0.0000
    474 H         157.3759  131.9268   32.1358 H        78        0    0.0000
    475 C         155.3722  132.2209   32.9534 C.3      79        0    0.0000
    476 C         155.3450  133.5493   32.1894 C.3      79        0    0.0000
    477 H         154.6982  131.4986   32.4763 H        79        0    0.0000
    478 H         155.0037  132.3677   33.9762 H        79        0    0.0000
    479 H         155.9346  134.3035   32.7251 H        79        0    0.0000
    480 H         155.8117  133.4261   31.2041 H        79        0    0.0000
    481 C         153.8876  134.0924   31.9938 C.3      80        0    0.0000
    482 C         153.8690  135.5598   31.5516 C.3      80        0    0.0000
    483 H         153.3746  133.4691   31.2509 H        80        0    0.0000
    484 H         153.3376  133.9765   32.9360 H        80        0    0.0000
    485 H         154.4244  136.1761   32.2695 H        80        0    0.0000
    486 H         154.3763  135.6678   30.5849 H        80        0    0.0000
    487 C         152.4118  136.1232   31.4233 C.3      81        0    0.0000
    488 C         152.3873  137.5470   30.8565 C.3      81        0    0.0000
    489 H         151.8286  135.4523   30.7803 H        81        0    0.0000
    490 H         151.9367  136.1037   32.4120 H        81        0    0.0000
    491 H         152.8100  138.2494   31.5855 H        81        0    0.0000
    492 H         153.0174  137.6060   29.9603 H        81        0    0.0000
    493 C         150.9375  138.0143   30.4864 C.3      82        0    0.0000
    494 C         150.9216  139.4072   29.8470 C.3      82        0    0.0000
    495 H         150.4936  137.2811   29.8017 H        82        0    0.0000
    496 H         150.3220  138.0103   31.3946 H        82        0    0.0000
    497 H         151.3655  140.1405   30.5316 H        82        0    0.0000
    498 H         151.5371  139.4112   28.9388 H        82        0    0.0000
    499 C         149.4718  139.8745   29.4768 C.3      83        0    0.0000
    500 C         149.1757  141.2951   29.9700 C.3      83        0    0.0000
    501 H         149.3504  139.8214   28.3878 H        83        0    0.0000
    502 H         148.7516  139.1686   29.9089 H        83        0    0.0000
    503 H         149.8600  141.5605   30.7854 H        83        0    0.0000
    504 H         149.3516  142.0176   29.1634 H        83        0    0.0000
    505 C         147.7007  141.4528   30.4768 C.3      84        0    0.0000
    506 C         147.5737  142.5162   31.5732 C.3      84        0    0.0000
    507 H         147.0600  141.7124   29.6249 H        84        0    0.0000
    508 H         147.3497  140.4830   30.8508 H        84        0    0.0000
    509 H         148.3035  142.3243   32.3696 H        84        0    0.0000
    510 H         147.8064  143.5074   31.1647 H        84        0    0.0000
    511 C         146.1380  142.5531   32.2017 C.3      85        0    0.0000
    512 C         145.9406  143.7574   33.1288 C.3      85        0    0.0000
    513 H         145.3981  142.5763   31.3920 H        85        0    0.0000
    514 H         145.9702  141.6208   32.7551 H        85        0    0.0000
    515 H         146.6413  143.7026   33.9711 H        85        0    0.0000
    516 H         146.1662  144.6868   32.5914 H        85        0    0.0000
    517 C         144.4798  143.8409   33.6914 C.3      86        0    0.0000
    518 C         144.2100  145.1660   34.4128 C.3      86        0    0.0000
    519 H         143.7735  143.7138   32.8616 H        86        0    0.0000
    520 H         144.3160  142.9996   34.3762 H        86        0    0.0000
    521 H         144.8801  145.2678   35.2755 H        86        0    0.0000
    522 H         144.4263  146.0088   33.7447 H        86        0    0.0000
    523 C         142.7272  145.2815   34.9083 C.3      87        0    0.0000
    524 C         142.0431  146.5559   34.4014 C.3      87        0    0.0000
    525 H         142.1720  144.3972   34.5718 H        87        0    0.0000
    526 H         142.7183  145.2606   36.0051 H        87        0    0.0000
    527 H         142.5385  147.4407   34.8200 H        87        0    0.0000
    528 H         142.1403  146.6268   33.3110 H        87        0    0.0000
    529 C         140.5219  146.6033   34.7773 C.3      88        0    0.0000
    530 C         139.9577  148.0278   34.7369 C.3      88        0    0.0000
    531 H         139.9663  145.9589   34.0847 H        88        0    0.0000
    532 H         140.3917  146.1754   35.7790 H        88        0    0.0000
    533 H         140.6301  148.7138   35.2669 H        88        0    0.0000
    534 H         139.9011  148.3807   33.6997 H        88        0    0.0000
    535 C         138.5314  148.1203   35.3807 C.3      89        0    0.0000
    536 C         137.7079  149.2773   34.8043 C.3      89        0    0.0000
    537 H         138.0083  147.1695   35.2196 H        89        0    0.0000
    538 H         138.6402  148.2401   36.4658 H        89        0    0.0000
    539 H         138.1693  150.2365   35.0702 H        89        0    0.0000
    540 H         137.7004  149.2244   33.7085 H        89        0    0.0000
    541 C         136.2278  149.2682   35.3208 C.3      90        0    0.0000
    542 C         135.3636  150.3261   34.6257 C.3      90        0    0.0000
    543 H         135.8030  148.2698   35.1589 H        90        0    0.0000
    544 H         136.2305  149.4376   36.4047 H        90        0    0.0000
    545 H         135.7607  151.3285   34.8280 H        90        0    0.0000
    546 H         135.4001  150.1863   33.5382 H        90        0    0.0000
    547 C         133.8680  150.2715   35.0922 C.3      91        0    0.0000
    548 C         132.8898  150.3147   33.9131 C.3      91        0    0.0000
    549 H         133.7129  149.3558   35.6762 H        91        0    0.0000
    550 H         133.6779  151.1131   35.7697 H        91        0    0.0000
    551 H         132.8658  151.3228   33.4810 H        91        0    0.0000
    552 H         133.2290  149.6392   33.1180 H        91        0    0.0000
    553 C         131.4347  149.9101   34.3331 C.3      92        0    0.0000
    554 C         130.4218  151.0302   34.0710 C.3      92        0    0.0000
    555 H         131.1463  149.0059   33.7829 H        92        0    0.0000
    556 H         131.4348  149.6446   35.3976 H        92        0    0.0000
    557 H         130.9326  152.0008   34.0455 H        92        0    0.0000
    558 H         129.9560  150.8934   33.0873 H        92        0    0.0000
    559 C         129.2960  151.0801   35.1607 C.3      93        0    0.0000
    560 C         128.7745  152.5026   35.3924 C.3      93        0    0.0000
    561 H         128.4736  150.4240   34.8497 H        93        0    0.0000
    562 H         129.6915  150.6673   36.0970 H        93        0    0.0000
    563 H         128.9892  153.1290   34.5177 H        93        0    0.0000
    564 H         127.6839  152.4889   35.5101 H        93        0    0.0000
    565 C         129.4113  153.1696   36.6601 C.3      94        0    0.0000
    566 C         129.0527  154.6552   36.7769 C.3      94        0    0.0000
    567 H         129.0714  152.6293   37.5524 H        94        0    0.0000
    568 H         130.5006  153.0481   36.6141 H        94        0    0.0000
    569 H         127.9677  154.7725   36.8892 H        94        0    0.0000
    570 H         129.5107  155.0831   37.6772 H        94        0    0.0000
    571 C         129.5236  155.4798   35.5296 C.3      95        0    0.0000
    572 C         129.2735  156.9825   35.6987 C.3      95        0    0.0000
    573 H         130.5920  155.2926   35.3648 H        95        0    0.0000
    574 H         128.9979  155.1086   34.6412 H        95        0    0.0000
    575 H         129.6961  157.5321   34.8485 H        95        0    0.0000
    576 H         128.1955  157.1864   35.7011 H        95        0    0.0000
    577 C         129.8969  157.5432   37.0232 C.3      96        0    0.0000
    578 C         129.6648  159.0499   37.1820 C.3      96        0    0.0000
    579 H         129.4628  157.0040   37.8743 H        96        0    0.0000
    580 H         130.9722  157.3257   37.0277 H        96        0    0.0000
    581 H         128.6080  159.2466   37.4011 H        96        0    0.0000
    582 H         130.2397  159.4312   38.0350 H        96        0    0.0000
    583 C         130.0726  159.8523   35.8985 C.3      97        0    0.0000
    584 C         129.8581  161.3609   36.0641 C.3      97        0    0.0000
    585 H         131.1257  159.6448   35.6715 H        97        0    0.0000
    586 H         129.4878  159.4803   35.0482 H        97        0    0.0000
    587 H         130.2936  161.8984   35.2127 H        97        0    0.0000
    588 H         128.7853  161.5903   36.0662 H        97        0    0.0000
    589 C         130.4948  161.9098   37.3873 C.3      98        0    0.0000
    590 C         130.0350  163.3370   37.7046 C.3      98        0    0.0000
    591 H         130.2301  161.2371   38.2126 H        98        0    0.0000
    592 H         131.5874  161.8786   37.2935 H        98        0    0.0000
    593 H         130.3237  164.0147   36.8917 H        98        0    0.0000
    594 H         128.9406  163.3735   37.7715 H        98        0    0.0000
    595 C         130.6414  163.8718   39.0477 C.3      99        0    0.0000
    596 C         130.3506  165.3610   39.2640 C.3      99        0    0.0000
    597 H         130.2327  163.2841   39.8790 H        99        0    0.0000
    598 H         131.7245  163.6971   39.0409 H        99        0    0.0000
    599 H         130.7041  165.9421   38.4032 H        99        0    0.0000
    600 H         129.2683  165.5267   39.3330 H        99        0    0.0000
    601 C         131.0308  165.9166   40.5625 C.3     100        0    0.0000
    602 C         130.7386  167.4054   40.7797 C.3     100        0    0.0000
    603 H         130.6783  165.3346   41.4230 H       100        0    0.0000
    604 H         132.1132  165.7520   40.4928 H       100        0    0.0000
    605 H         129.6942  167.5430   41.0862 H       100        0    0.0000
    606 H         131.3602  167.7956   41.5951 H       100        0    0.0000
    607 C         131.0033  168.2571   39.4905 C.3     101        0    0.0000
    608 C         130.4144  169.6682   39.5956 C.3     101        0    0.0000
    609 H         132.0855  168.3129   39.3196 H       101        0    0.0000
    610 H         130.5744  167.7339   38.6269 H       101        0    0.0000
    611 H         130.6185  170.0880   40.5884 H       101        0    0.0000
    612 H         130.8967  170.3322   38.8676 H       101        0    0.0000
    613 C         128.8666  169.6860   39.3479 C.3     102        0    0.0000
    614 C         128.3142  171.1105   39.2261 C.3     102        0    0.0000
    615 H         128.6480  169.1185   38.4349 H       102        0    0.0000
    616 H         128.3704  169.1595   40.1726 H       102        0    0.0000
    617 H         127.2298  171.0808   39.0623 H       102        0    0.0000
    618 H         128.4764  171.6582   40.1627 H       102        0    0.0000
    619 C         128.9808  171.9079   38.0525 C.3     103        0    0.0000
    620 C         128.2662  173.2344   37.7719 C.3     103        0    0.0000
    621 H         130.0327  172.0929   38.3033 H       103        0    0.0000
    622 H         128.9773  171.2809   37.1522 H       103        0    0.0000
    623 H         127.2446  173.2029   38.1705 H       103        0    0.0000
    624 H         128.7803  174.0550   38.2875 H       103        0    0.0000
    625 C         128.2012  173.5618   36.2403 C.3     104        0    0.0000
    626 C         127.5723  174.9323   35.9655 C.3     104        0    0.0000
    627 H         129.2169  173.5245   35.8273 H       104        0    0.0000
    628 H         127.6265  172.7760   35.7347 H       104        0    0.0000
    629 H         126.5085  174.8163   35.7239 H       104        0    0.0000
    630 H         127.6247  175.5575   36.8654 H       104        0    0.0000
    631 C         128.2792  175.6845   34.7857 C.3     105        0    0.0000
    632 C         127.6591  177.0607   34.5198 C.3     105        0    0.0000
    633 H         129.3450  175.7916   35.0227 H       105        0    0.0000
    634 H         128.2180  175.0637   33.8833 H       105        0    0.0000
    635 H         126.6097  176.9489   34.2201 H       105        0    0.0000
    636 H         127.6621  177.6587   35.4396 H       105        0    0.0000
    637 C         128.4227  177.8504   33.4014 C.3     106        0    0.0000
    638 C         127.7947  179.2212   33.1264 C.3     106        0    0.0000
    639 H         129.4699  177.9705   33.7055 H       106        0    0.0000
    640 H         128.4280  177.2482   32.4843 H       106        0    0.0000
    641 H         126.7285  179.1068   32.8948 H       106        0    0.0000
    642 H         127.8567  179.8500   34.0231 H       106        0    0.0000
    643 C         128.4930  179.9667   31.9372 C.3     107        0    0.0000
    644 C         127.6235  181.0927   31.3669 C.3     107        0    0.0000
    645 H         129.4507  180.3714   32.2872 H       107        0    0.0000
    646 H         128.7273  179.2377   31.1516 H       107        0    0.0000
    647 H         126.6167  180.7161   31.1475 H       107        0    0.0000
    648 H         127.5063  181.8908   32.1105 H       107        0    0.0000
    649 C         128.2297  181.7066   30.0580 C.3     108        0    0.0000
    650 C         128.3956  183.2273   30.1524 C.3     108        0    0.0000
    651 H         129.2001  181.2337   29.8623 H       108        0    0.0000
    652 H         127.5785  181.4509   29.2130 H       108        0    0.0000
    653 H         127.5109  183.7284   29.7405 H       108        0    0.0000
    654 H         128.4702  183.5330   31.2034 H       108        0    0.0000
    655 C         129.6660  183.7350   29.3871 C.3     109        0    0.0000
    656 C         130.0900  185.1389   29.8324 C.3     109        0    0.0000
    657 H         130.4856  183.0245   29.5520 H       109        0    0.0000
    658 H         129.4560  183.7293   28.3104 H       109        0    0.0000
    659 H         129.3051  185.8647   29.5860 H       109        0    0.0000
    660 H         130.2137  185.1665   30.9222 H       109        0    0.0000
    661 C         131.4303  185.5961   29.1600 C.3     110        0    0.0000
    662 C         131.7904  187.0445   29.5084 C.3     110        0    0.0000
    663 H         132.2342  184.9213   29.4793 H       110        0    0.0000
    664 H         131.3370  185.4827   28.0728 H       110        0    0.0000
    665 H         131.3441  187.3218   30.4715 H       110        0    0.0000
    666 H         132.8767  187.1445   29.6242 H       110        0    0.0000
    667 C         131.3033  188.0572   28.4154 C.3     111        0    0.0000
    668 C         131.7899  189.4847   28.6882 C.3     111        0    0.0000
    669 H         131.6612  187.7186   27.4352 H       111        0    0.0000
    670 H         130.2072  188.0345   28.3757 H       111        0    0.0000
    671 H         131.2563  189.9060   29.5492 H       111        0    0.0000
    672 H         132.8549  189.4753   28.9514 H       111        0    0.0000
    673 C         131.5828  190.4290   27.4540 C.3     112        0    0.0000
    674 C         132.0719  191.8558   27.7258 C.3     112        0    0.0000
    675 H         132.1148  190.0067   26.5925 H       112        0    0.0000
    676 H         130.5175  190.4399   27.1920 H       112        0    0.0000
    677 H         131.6150  192.2413   28.6457 H       112        0    0.0000
    678 H         133.1568  191.8570   27.8886 H       112        0    0.0000
    679 C         131.7367  192.8334   26.5471 C.3     113        0    0.0000
    680 C         132.1601  194.2750   26.8498 C.3     113        0    0.0000
    681 H         132.2381  192.4770   25.6387 H       113        0    0.0000
    682 H         130.6586  192.7918   26.3489 H       113        0    0.0000
    683 H         132.7956  194.6580   26.0418 H       113        0    0.0000
    684 H         131.2775  194.9253   26.8917 H       113        0    0.0000
    685 C         132.9395  194.3932   28.2048 C.3     114        0    0.0000
    686 C         133.1681  195.8512   28.6182 C.3     114        0    0.0000
    687 H         132.3761  193.8652   28.9841 H       114        0    0.0000
    688 H         133.9014  193.8751   28.1058 H       114        0    0.0000
    689 H         133.9065  196.3189   27.9551 H       114        0    0.0000
    690 H         132.2387  196.4236   28.5080 H       114        0    0.0000
    691 C         133.6669  195.9778   30.0989 C.3     115        0    0.0000
    692 C         134.0320  197.4199   30.4676 C.3     115        0    0.0000
    693 H         132.8826  195.6051   30.7694 H       115        0    0.0000
    694 H         134.5362  195.3228   30.2364 H       115        0    0.0000
    695 H         133.5633  197.6947   31.4207 H       115        0    0.0000
    696 H         135.1159  197.5083   30.6126 H       115        0    0.0000
    697 C         133.5838  198.4454   29.3700 C.3     116        0    0.0000
    698 C         134.1996  199.8324   29.5847 C.3     116        0    0.0000
    699 H         133.8685  198.0558   28.3847 H       116        0    0.0000
    700 H         132.4889  198.5148   29.3769 H       116        0    0.0000
    701 H         133.6464  200.3733   30.3625 H       116        0    0.0000
    702 H         135.2319  199.7342   29.9429 H       116        0    0.0000
    703 C         134.1992  200.6921   28.2738 C.3     117        0    0.0000
    704 C         134.5340  202.1631   28.5438 C.3     117        0    0.0000
    705 H         134.9241  200.2643   27.5702 H       117        0    0.0000
    706 H         133.2137  200.6117   27.7986 H       117        0    0.0000
    707 H         135.5556  202.2509   28.9340 H       117        0    0.0000
    708 H         134.5043  202.7337   27.6073 H       117        0    0.0000
    709 C         133.5443  202.8196   29.5670 C.3     118        0    0.0000
    710 C         134.1268  204.0831   30.2099 C.3     118        0    0.0000
    711 H         132.6073  203.0589   29.0489 H       118        0    0.0000
    712 H         133.2967  202.0833   30.3417 H       118        0    0.0000
    713 H         135.2199  204.0832   30.1159 H       118        0    0.0000
    714 H         133.7652  204.9745   29.6824 H       118        0    0.0000
    715 C         133.7501  204.2058   31.7266 C.3     119        0    0.0000
    716 C         134.6320  205.2195   32.4640 C.3     119        0    0.0000
    717 H         132.6953  204.4965   31.8066 H       119        0    0.0000
    718 H         133.8409  203.2177   32.1945 H       119        0    0.0000
    719 H         135.6732  204.8742   32.4753 H       119        0    0.0000
    720 H         134.6244  206.1801   31.9342 H       119        0    0.0000
    721 C         134.1610  205.4532   33.9408 C.3     120        0    0.0000
    722 C         134.9500  206.5706   34.6322 C.3     120        0    0.0000
    723 H         133.0910  205.6952   33.9367 H       120        0    0.0000
    724 H         134.2696  204.5151   34.4992 H       120        0    0.0000
    725 H         136.0103  206.2971   34.6982 H       120        0    0.0000
    726 H         134.8984  207.4909   34.0373 H       120        0    0.0000
    727 C         134.4148  206.8708   36.0747 C.3     121        0    0.0000
    728 C         135.2809  207.8969   36.8137 C.3     121        0    0.0000
    729 H         133.3823  207.2340   36.0004 H       121        0    0.0000
    730 H         134.3785  205.9318   36.6409 H       121        0    0.0000
    731 H         136.3038  207.5161   36.9237 H       121        0    0.0000
    732 H         135.3503  208.8220   36.2281 H       121        0    0.0000
    733 C         134.7139  208.2397   38.2345 C.3     122        0    0.0000
    734 C         135.5602  209.2920   38.9592 C.3     122        0    0.0000
    735 H         133.6819  208.5959   38.1268 H       122        0    0.0000
    736 H         134.6689  207.3187   38.8288 H       122        0    0.0000
    737 H         136.5751  208.9097   39.1249 H       122        0    0.0000
    738 H         135.6595  210.1893   38.3359 H       122        0    0.0000
    739 C         134.9431  209.7022   40.3406 C.3     123        0    0.0000
    740 C         135.9644  209.6200   41.4805 C.3     123        0    0.0000
    741 H         134.5480  210.7227   40.2624 H       123        0    0.0000
    742 H         134.0880  209.0488   40.5539 H       123        0    0.0000
    743 H         136.7613  210.3578   41.3254 H       123        0    0.0000
    744 H         135.4843  209.8707   42.4345 H       123        0    0.0000
    745 C         136.6099  208.1963   41.5983 C.3     124        0    0.0000
    746 C         136.5043  207.6263   43.0171 C.3     124        0    0.0000
    747 H         136.1165  207.5243   40.8852 H       124        0    0.0000
    748 H         137.6625  208.2591   41.2955 H       124        0    0.0000
    749 H         137.4475  207.1421   43.2991 H       124        0    0.0000
    750 H         136.3391  208.4374   43.7370 H       124        0    0.0000
    751 C         135.3409  206.5845   43.1538 C.3     125        0    0.0000
    752 C         135.8334  205.2284   43.6709 C.3     125        0    0.0000
    753 H         134.5797  206.9914   43.8310 H       125        0    0.0000
    754 H         134.8594  206.4619   42.1757 H       125        0    0.0000
    755 H         136.7835  205.3520   44.2052 H       125        0    0.0000
    756 H         135.1167  204.8184   44.3932 H       125        0    0.0000
    757 C         136.0356  204.1895   42.5144 C.3     126        0    0.0000
    758 C         135.3271  202.8601   42.7974 C.3     126        0    0.0000
    759 H         135.6608  204.6238   41.5793 H       126        0    0.0000
    760 H         137.1105  204.0206   42.3747 H       126        0    0.0000
    761 H         136.0365  202.1387   43.2214 H       126        0    0.0000
    762 H         134.5398  203.0057   43.5473 H       126        0    0.0000
    763 C         134.6876  202.2412   41.5069 C.3     127        0    0.0000
    764 C         135.6025  201.2049   40.8450 C.3     127        0    0.0000
    765 H         133.7285  201.7805   41.7736 H       127        0    0.0000
    766 H         134.4630  203.0502   40.8008 H       127        0    0.0000
    767 H         136.6387  201.3536   41.1732 H       127        0    0.0000
    768 H         135.3146  200.1939   41.1589 H       127        0    0.0000
    769 C         135.5523  201.2815   39.2800 C.3     128        0    0.0000
    770 C         136.9504  201.2625   38.6524 C.3     128        0    0.0000
    771 H         134.9595  200.4386   38.9036 H       128        0    0.0000
    772 H         135.0210  202.1957   38.9876 H       128        0    0.0000
    773 H         137.6782  201.7084   39.3416 H       128        0    0.0000
    774 H         137.2718  200.2277   38.4810 H       128        0    0.0000
    775 C         137.0014  202.0394   37.2918 C.3     129        0    0.0000
    776 C         137.2589  201.1092   36.1011 C.3     129        0    0.0000
    777 H         136.0531  202.5734   37.1537 H       129        0    0.0000
    778 H         137.7874  202.8026   37.3496 H       129        0    0.0000
    779 H         138.3371  201.0209   35.9190 H       129        0    0.0000
    780 H         136.8937  200.0996   36.3267 H       129        0    0.0000
    781 C         136.5649  201.6163   34.7901 C.3     130        0    0.0000
    782 C         136.5007  200.5311   33.7098 C.3     130        0    0.0000
    783 H         135.5533  201.9621   35.0365 H       130        0    0.0000
    784 H         137.1134  202.4890   34.4145 H       130        0    0.0000
    785 H         137.5145  200.2209   33.4274 H       130        0    0.0000
    786 H         135.9961  199.6393   34.1019 H       130        0    0.0000
    787 C         135.7444  201.0157   32.4250 C.3     131        0    0.0000
    788 C         136.5611  202.0315   31.6187 C.3     131        0    0.0000
    789 H         135.5093  200.1432   31.8028 H       131        0    0.0000
    790 H         134.7855  201.4567   32.7244 H       131        0    0.0000
    791 H         135.8943  202.7757   31.1658 H       131        0    0.0000
    792 H         137.2405  202.5800   32.2829 H       131        0    0.0000
    793 C         137.4030  201.3510   30.4848 C.3     132        0    0.0000
    794 C         138.8493  201.8569   30.4521 C.3     132        0    0.0000
    795 H         137.3877  200.2646   30.6367 H       132        0    0.0000
    796 H         136.9160  201.5412   29.5203 H       132        0    0.0000
    797 H         139.1131  202.3049   31.4182 H       132        0    0.0000
    798 H         139.5380  201.0173   30.2957 H       132        0    0.0000
    799 C         139.0821  202.9185   29.3224 C.3     133        0    0.0000
    800 C         140.2248  202.5235   28.3806 C.3     133        0    0.0000
    801 H         138.1514  203.0401   28.7544 H       133        0    0.0000
    802 H         139.2963  203.8887   29.7876 H       133        0    0.0000
    803 H         140.6443  203.4173   27.9025 H       133        0    0.0000
    804 H         141.0392  202.0597   28.9510 H       133        0    0.0000
    805 C         139.7575  201.5261   27.2651 C.3     134        0    0.0000
    806 C         140.1938  201.9738   25.8657 C.3     134        0    0.0000
    807 H         140.1654  200.5319   27.4862 H       134        0    0.0000
    808 H         138.6651  201.4349   27.3073 H       134        0    0.0000
    809 H         140.4194  203.0474   25.8676 H       134        0    0.0000
    810 H         141.1181  201.4582   25.5770 H       134        0    0.0000
    811 C         139.0971  201.6897   24.7822 C.3     135        0    0.0000
    812 C         138.6637  202.9627   24.0469 C.3     135        0    0.0000
    813 H         139.4889  200.9566   24.0662 H       135        0    0.0000
    814 H         138.2317  201.2232   25.2690 H       135        0    0.0000
    815 H         139.4318  203.7386   24.1533 H       135        0    0.0000
    816 H         138.5655  202.7617   22.9729 H       135        0    0.0000
    817 C         137.3013  203.5235   24.5826 C.3     136        0    0.0000
    818 C         136.2217  203.5630   23.4954 C.3     136        0    0.0000
    819 H         136.9678  202.9003   25.4215 H       136        0    0.0000
    820 H         137.4672  204.5306   24.9848 H       136        0    0.0000
    821 H         135.6581  204.5021   23.5590 H       136        0    0.0000
    822 H         136.6871  203.5415   22.5022 H       136        0    0.0000
    823 C         135.2192  202.3633   23.6099 C.3     137        0    0.0000
    824 C         135.1807  201.5148   22.3341 C.3     137        0    0.0000
    825 H         135.5079  201.7417   24.4665 H       137        0    0.0000
    826 H         134.2193  202.7578   23.8297 H       137        0    0.0000
    827 H         134.3373  201.8221   21.7033 H       137        0    0.0000
    828 H         136.0913  201.6799   21.7450 H       137        0    0.0000
    829 C         135.0492  199.9835   22.6429 C.3     138        0    0.0000
    830 C         136.2068  199.1705   22.0529 C.3     138        0    0.0000
    831 H         135.0076  199.8443   23.7303 H       138        0    0.0000
    832 H         134.0937  199.6228   22.2423 H       138        0    0.0000
    833 H         135.8259  198.2451   21.6035 H       138        0    0.0000
    834 H         136.6912  199.7359   21.2471 H       138        0    0.0000
    835 C         137.2843  198.8027   23.1306 C.3     139        0    0.0000
    836 C         137.9457  197.4485   22.8521 C.3     139        0    0.0000
    837 H         138.0436  199.5941   23.1558 H       139        0    0.0000
    838 H         136.8072  198.7923   24.1184 H       139        0    0.0000
    839 H         137.1857  196.6579   22.8217 H       139        0    0.0000
    840 H         138.4272  197.4606   21.8664 H       139        0    0.0000
    841 C         139.0180  197.0774   23.9336 C.3     140        0    0.0000
    842 C         140.3416  196.6240   23.3077 C.3     140        0    0.0000
    843 H         139.1859  197.9488   24.5786 H       140        0    0.0000
    844 H         138.6139  196.2841   24.5747 H       140        0    0.0000
    845 H         140.3806  195.5286   23.2627 H       140        0    0.0000
    846 H         140.4118  196.9846   22.2740 H       140        0    0.0000
    847 C         141.5857  197.1415   24.1090 C.3     141        0    0.0000
    848 C         142.9070  196.8171   23.4032 C.3     141        0    0.0000
    849 H         141.4902  198.2254   24.2490 H       141        0    0.0000
    850 H         141.5736  196.6922   25.1097 H       141        0    0.0000
    851 H         143.0714  195.7325   23.3927 H       141        0    0.0000
    852 H         142.8627  197.1392   22.3554 H       141        0    0.0000
    853 C         144.1339  197.5076   24.0927 C.3     142        0    0.0000
    854 C         145.4494  197.2197   23.3608 C.3     142        0    0.0000
    855 H         143.9545  198.5891   24.1327 H       142        0    0.0000
    856 H         144.1975  197.1602   25.1314 H       142        0    0.0000
    857 H         145.8870  198.1555   22.9916 H       142        0    0.0000
    858 H         146.1783  196.7833   24.0548 H       142        0    0.0000
    859 C         145.2546  196.2414   22.1515 C.3     143        0    0.0000
    860 C         146.5406  196.0607   21.3375 C.3     143        0    0.0000
    861 H         144.9114  195.2717   22.5329 H       143        0    0.0000
    862 H         144.4540  196.6284   21.5089 H       143        0    0.0000
    863 H         146.8510  197.0206   20.9065 H       143        0    0.0000
    864 H         147.3568  195.7306   21.9921 H       143        0    0.0000
    865 C         146.3691  195.0185   20.1791 C.3     144        0    0.0000
    866 C         147.6965  194.7017   19.4815 C.3     144        0    0.0000
    867 H         145.9322  194.1004   20.5913 H       144        0    0.0000
    868 H         145.6472  195.4126   19.4530 H       144        0    0.0000
    869 H         147.9617  195.5123   18.7916 H       144        0    0.0000
    870 H         148.5047  194.6403   20.2208 H       144        0    0.0000
    871 C         147.6404  193.3550   18.6811 C.3     145        0    0.0000
    872 C         149.0358  192.8421   18.3086 C.3     145        0    0.0000
    873 H         147.1133  192.6062   19.2853 H       145        0    0.0000
    874 H         147.0412  193.5070   17.7748 H       145        0    0.0000
    875 H         149.2858  193.1427   17.2836 H       145        0    0.0000
    876 H         149.7905  193.2960   18.9629 H       145        0    0.0000
    877 C         149.1443  191.2821   18.4185 C.3     146        0    0.0000
    878 C         150.5991  190.7997   18.4202 C.3     146        0    0.0000
    879 H         148.6389  190.9563   19.3360 H       146        0    0.0000
    880 H         148.5990  190.8299   17.5808 H       146        0    0.0000
    881 H         150.8953  190.4943   17.4090 H       146        0    0.0000
    882 H         151.2672  191.6203   18.7098 H       146        0    0.0000
    883 C         150.8246  189.5955   19.3981 C.3     147        0    0.0000
    884 C         152.2838  189.1273   19.4163 C.3     147        0    0.0000
    885 H         150.5132  189.8956   20.4064 H       147        0    0.0000
    886 H         150.1681  188.7691   19.0987 H       147        0    0.0000
    887 H         152.5327  188.6349   18.4680 H       147        0    0.0000
    888 H         152.9547  189.9904   19.5087 H       147        0    0.0000
    889 C         152.5743  188.1333   20.5931 C.3     148        0    0.0000
    890 C         154.0553  187.7475   20.6755 C.3     148        0    0.0000
    891 H         152.2533  188.5963   21.5344 H       148        0    0.0000
    892 H         151.9587  187.2354   20.4577 H       148        0    0.0000
    893 H         154.3699  187.2619   19.7434 H       148        0    0.0000
    894 H         154.6729  188.6475   20.7859 H       148        0    0.0000
    895 C         154.3518  186.7812   21.8737 C.3     149        0    0.0000
    896 C         155.8145  186.3242   21.9032 C.3     149        0    0.0000
    897 H         154.0983  187.2919   22.8109 H       149        0    0.0000
    898 H         153.6874  185.9114   21.7992 H       149        0    0.0000
    899 H         156.0913  185.8862   20.9362 H       149        0    0.0000
    900 H         156.4748  187.1863   22.0591 H       149        0    0.0000
    901 C         156.0849  185.2700   23.0315 C.3     150        0    0.0000
    902 C         157.5215  184.7370   22.9961 C.3     150        0    0.0000
    903 H         155.8792  185.7330   24.0046 H       150        0    0.0000
    904 H         155.3737  184.4422   22.9198 H       150        0    0.0000
    905 H         158.2243  185.5308   23.2779 H       150        0    0.0000
    906 H         157.6426  183.9330   23.7327 H       150        0    0.0000
    907 C         157.9176  184.1902   21.5814 C.3     151        0    0.0000
    908 C         159.4095  183.8519   21.4863 C.3     151        0    0.0000
    909 H         157.3153  183.2991   21.3654 H       151        0    0.0000
    910 H         157.6530  184.9401   20.8256 H       151        0    0.0000
    911 H         159.8129  184.1966   20.5261 H       151        0    0.0000
    912 H         159.9659  184.3810   22.2699 H       151        0    0.0000
    913 C         159.6800  182.3141   21.6253 C.3     152        0    0.0000
    914 C         161.1493  181.9577   21.3738 C.3     152        0    0.0000
    915 H         159.3815  181.9920   22.6306 H       152        0    0.0000
    916 H         159.0361  181.7764   20.9181 H       152        0    0.0000
    917 H         161.7795  182.8460   21.5049 H       152        0    0.0000
    918 H         161.4886  181.2191   22.1106 H       152        0    0.0000
    919 C         161.3828  181.3803   19.9352 C.3     153        0    0.0000
    920 C         162.7985  180.8209   19.7565 C.3     153        0    0.0000
    921 H         160.6411  180.5948   19.7447 H       153        0    0.0000
    922 H         161.1966  182.1741   19.2011 H       153        0    0.0000
    923 H         162.9082  180.3881   18.7545 H       153        0    0.0000
    924 H         163.5351  181.6302   19.8326 H       153        0    0.0000
    925 C         163.1422  179.7231   20.8215 C.3     154        0    0.0000
    926 C         164.4877  179.0443   20.5425 C.3     154        0    0.0000
    927 H         163.1536  180.1863   21.8159 H       154        0    0.0000
    928 H         162.3388  178.9760   20.8312 H       154        0    0.0000
    929 H         165.3057  179.7642   20.6694 H       154        0    0.0000
    930 H         164.6607  178.2397   21.2679 H       154        0    0.0000
    931 C         164.5620  178.4449   19.0959 C.3     155        0    0.0000
    932 C         165.9362  177.8403   18.7875 C.3     155        0    0.0000
    933 H         163.7823  177.6805   18.9893 H       155        0    0.0000
    934 H         164.3283  179.2361   18.3728 H       155        0    0.0000
    935 H         166.7083  178.6183   18.8335 H       155        0    0.0000
    936 H         166.1970  177.0923   19.5465 H       155        0    0.0000
    937 C         165.9841  177.1638   17.3742 C.3     156        0    0.0000
    938 C         167.3846  176.6492   17.0236 C.3     156        0    0.0000
    939 H         165.2634  176.3369   17.3533 H       156        0    0.0000
    940 H         165.6514  177.8906   16.6228 H       156        0    0.0000
    941 H         168.1469  177.3081   17.4575 H       156        0    0.0000
    942 H         167.5407  175.6555   17.4615 H       156        0    0.0000
    943 C         167.6148  176.5610   15.4755 C.3     157        0    0.0000
    944 C         169.1030  176.5437   15.1096 C.3     157        0    0.0000
    945 H         167.1236  175.6564   15.0959 H       157        0    0.0000
    946 H         167.1191  177.4137   14.9951 H       157        0    0.0000
    947 H         169.6277  177.3547   15.6299 H       157        0    0.0000
    948 H         169.5620  175.6054   15.4449 H       157        0    0.0000
    949 C         169.3374  176.6980   13.5673 C.3     158        0    0.0000
    950 C         170.8125  176.9349   13.2248 C.3     158        0    0.0000
    951 H         168.9745  175.7943   13.0623 H       158        0    0.0000
    952 H         168.7271  177.5316   13.1985 H       158        0    0.0000
    953 H         171.1599  177.8689   13.6837 H       158        0    0.0000
    954 H         171.4297  176.1300   13.6428 H       158        0    0.0000
    955 C         171.0588  177.0095   11.6785 C.3     159        0    0.0000
    956 C         172.5376  177.2207   11.3354 C.3     159        0    0.0000
    957 H         170.6943  176.0832   11.2173 H       159        0    0.0000
    958 H         170.4558  177.8266   11.2633 H       159        0    0.0000
    959 H         172.8981  178.1547   11.7841 H       159        0    0.0000
    960 H         173.1423  176.4116   11.7633 H       159        0    0.0000
    961 C         172.7868  177.2742    9.7886 C.3     160        0    0.0000
    962 C         174.1803  177.8107    9.4430 C.3     160        0    0.0000
    963 H         172.6585  176.2663    9.3748 H       160        0    0.0000
    964 H         172.0161  177.9044    9.3278 H       160        0    0.0000
    965 H         174.4023  178.6985   10.0481 H       160        0    0.0000
    966 H         174.9434  177.0623    9.6899 H       160        0    0.0000
    967 C         174.3130  178.1865    7.9269 C.3     161        0    0.0000
    968 C         175.0674  179.5044    7.7190 C.3     161        0    0.0000
    969 H         174.8288  177.3714    7.4044 H       161        0    0.0000
    970 H         173.3088  178.2550    7.4903 H       161        0    0.0000
    971 H         174.9057  180.1696    8.5762 H       161        0    0.0000
    972 H         176.1467  179.3156    7.6659 H       161        0    0.0000
    973 C         174.6192  180.2458    6.4125 C.3     162        0    0.0000
    974 C         175.7529  180.3513    5.3865 C.3     162        0    0.0000
    975 H         173.7664  179.7104    5.9770 H       162        0    0.0000
    976 H         174.2594  181.2471    6.6798 H       162        0    0.0000
    977 H         176.3445  181.2566    5.5714 H       162        0    0.0000
    978 H         176.4372  179.5005    5.4933 H       162        0    0.0000
    979 C         175.2192  180.3887    3.9131 C.3     163        0    0.0000
    980 C         175.1074  181.8183    3.3719 C.3     163        0    0.0000
    981 H         175.8912  179.7978    3.2784 H       163        0    0.0000
    982 H         174.2396  179.8961    3.8792 H       163        0    0.0000
    983 H         175.0705  182.5334    4.2031 H       163        0    0.0000
    984 H         175.9977  182.0676    2.7812 H       163        0    0.0000
    985 C         173.8355  182.0172    2.4773 C.3     164        0    0.0000
    986 C         173.5270  183.4975    2.2273 C.3     164        0    0.0000
    987 H         173.9899  181.4987    1.5230 H       164        0    0.0000
    988 H         172.9809  181.5320    2.9649 H       164        0    0.0000
    989 H         173.3439  184.0098    3.1799 H       164        0    0.0000
    990 H         174.3924  183.9895    1.7662 H       164        0    0.0000
    991 C         172.2793  183.6958    1.2991 C.3     165        0    0.0000
    992 C         172.0292  185.1715    0.9694 C.3     165        0    0.0000
    993 H         172.4317  183.1245    0.3750 H       165        0    0.0000
    994 H         171.3991  183.2664    1.7933 H       165        0    0.0000
    995 H         171.9225  185.7509    1.8949 H       165        0    0.0000
    996 H         172.8913  185.5887    0.4342 H       165        0    0.0000
    997 C         170.7445  185.3754    0.0946 C.3     166        0    0.0000
    998 C         170.4034  186.8569   -0.1001 C.3     166        0    0.0000
    999 H         170.8994  184.8939   -0.8789 H       166        0    0.0000
   1000 H         169.9049  184.8559    0.5729 H       166        0    0.0000
   1001 H         170.1709  187.0540   -1.1540 H       166        0    0.0000
   1002 H         169.5050  187.1147    0.4743 H       166        0    0.0000
   1003 C         171.5747  187.7995    0.3437 C.3     167        0    0.0000
   1004 C         171.2481  189.2793    0.1144 C.3     167        0    0.0000
   1005 H         171.7890  187.6216    1.4048 H       167        0    0.0000
   1006 H         172.4801  187.5238   -0.2111 H       167        0    0.0000
   1007 H         170.4797  189.6093    0.8244 H       167        0    0.0000
   1008 H         172.1367  189.8943    0.3035 H       167        0    0.0000
   1009 C         170.7421  189.5571   -1.3431 C.3     168        0    0.0000
   1010 C         170.2861  191.0080   -1.5330 C.3     168        0    0.0000
   1011 H         171.5484  189.3208   -2.0484 H       168        0    0.0000
   1012 H         169.9161  188.8708   -1.5674 H       168        0    0.0000
   1013 H         169.4298  191.2215   -0.8814 H       168        0    0.0000
   1014 H         171.0874  191.6960   -1.2359 H       168        0    0.0000
   1015 C         169.8813  191.3142   -3.0161 C.3     169        0    0.0000
   1016 C         170.4825  192.6299   -3.5226 C.3     169        0    0.0000
   1017 H         170.2090  190.4818   -3.6512 H       169        0    0.0000
   1018 H         168.7868  191.3501   -3.0837 H       169        0    0.0000
   1019 H         169.8123  193.4655   -3.2857 H       169        0    0.0000
   1020 H         171.4311  192.8319   -3.0100 H       169        0    0.0000
   1021 C         170.7380  192.6099   -5.0691 C.3     170        0    0.0000
   1022 C         169.6385  193.3393   -5.8490 C.3     170        0    0.0000
   1023 H         171.7125  193.0710   -5.2725 H       170        0    0.0000
   1024 H         170.8072  191.5671   -5.4026 H       170        0    0.0000
   1025 H         168.7303  193.4138   -5.2381 H       170        0    0.0000
   1026 H         169.9535  194.3663   -6.0718 H       170        0    0.0000
   1027 C         169.2848  192.6162   -7.1942 C.3     171        0    0.0000
   1028 C         169.6303  193.4686   -8.4201 C.3     171        0    0.0000
   1029 H         169.8246  191.6620   -7.2352 H       171        0    0.0000
   1030 H         168.2150  192.3733   -7.1943 H       171        0    0.0000
   1031 H         168.8046  194.1546   -8.6462 H       171        0    0.0000
   1032 H         170.5086  194.0915   -8.2098 H       171        0    0.0000
   1033 C         169.9227  192.5945   -9.6882 C.3     172        0    0.0000
   1034 C         169.3829  193.2346  -10.9719 C.3     172        0    0.0000
   1035 H         171.0060  192.4422   -9.7706 H       172        0    0.0000
   1036 H         169.4751  191.6032   -9.5452 H       172        0    0.0000
   1037 H         168.3366  193.5333  -10.8321 H       172        0    0.0000
   1038 H         169.9437  194.1493  -11.2008 H       172        0    0.0000
   1039 C         169.4720  192.2663  -12.2015 C.3     173        0    0.0000
   1040 C         169.5317  193.0225  -13.5333 C.3     173        0    0.0000
   1041 H         170.3601  191.6323  -12.0888 H       173        0    0.0000
   1042 H         168.6031  191.5966  -12.1879 H       173        0    0.0000
   1043 H         168.5991  193.5779  -13.6927 H       173        0    0.0000
   1044 H         170.3398  193.7641  -13.5088 H       173        0    0.0000
   1045 C         169.7630  192.0632  -14.7514 C.3     174        0    0.0000
   1046 C         169.5798  192.7766  -16.0955 C.3     174        0    0.0000
   1047 H         170.7739  191.6427  -14.6833 H       174        0    0.0000
   1048 H         169.0653  191.2201  -14.6749 H       174        0    0.0000
   1049 H         168.5839  193.2338  -16.1461 H       174        0    0.0000
   1050 H         170.3065  193.5930  -16.1901 H       174        0    0.0000
   1051 C         169.7515  191.8037  -17.3126 C.3     175        0    0.0000
   1052 C         169.6170  192.5265  -18.6574 C.3     175        0    0.0000
   1053 H         170.7334  191.3193  -17.2424 H       175        0    0.0000
   1054 H         169.0011  191.0070  -17.2371 H       175        0    0.0000
   1055 H         168.6315  193.0027  -18.7317 H       175        0    0.0000
   1056 H         170.3610  193.3295  -18.7290 H       175        0    0.0000
   1057 C         169.8022  191.5561  -19.8746 C.3     176        0    0.0000
   1058 C         169.6672  192.2788  -21.2194 C.3     176        0    0.0000
   1059 H         170.7879  191.0802  -19.8006 H       176        0    0.0000
   1060 H         169.0584  190.7529  -19.8029 H       176        0    0.0000
   1061 H         168.6818  192.7553  -21.2931 H       176        0    0.0000
   1062 H         170.4115  193.0816  -21.2915 H       176        0    0.0000
   1063 C         169.8514  191.3082  -22.4366 C.3     177        0    0.0000
   1064 C         169.7124  192.0302  -23.7814 C.3     177        0    0.0000
   1065 H         170.8380  190.8339  -22.3645 H       177        0    0.0000
   1066 H         169.1090  190.5039  -22.3630 H       177        0    0.0000
   1067 H         168.7250  192.5026  -23.8545 H       177        0    0.0000
   1068 H         170.4533  192.8361  -23.8540 H       177        0    0.0000
   1069 C         169.8999  191.0603  -24.9986 C.3     178        0    0.0000
   1070 C         169.7556  191.7812  -26.3434 C.3     178        0    0.0000
   1071 H         170.8890  190.5909  -24.9277 H       178        0    0.0000
   1072 H         169.1616  190.2523  -24.9238 H       178        0    0.0000
   1073 H         168.7665  192.2504  -26.4145 H       178        0    0.0000
   1074 H         170.4937  192.5895  -26.4180 H       178        0    0.0000
   1075 C         169.9435  190.8114  -27.5606 C.3     179        0    0.0000
   1076 C         169.8031  191.5331  -28.9054 C.3     179        0    0.0000
   1077 H         170.9315  190.3401  -27.4880 H       179        0    0.0000
   1078 H         169.2035  190.0047  -27.4875 H       179        0    0.0000
   1079 H         168.8145  192.0031  -28.9786 H       179        0    0.0000
   1080 H         170.5421  192.3407  -28.9779 H       179        0    0.0000
   1081 C         169.9931  190.5636  -30.1226 C.3     180        0    0.0000
   1082 C         169.8499  191.2848  -31.4674 C.3     180        0    0.0000
   1083 H         170.9824  190.0951  -30.0504 H       180        0    0.0000
   1084 H         169.2554  189.7549  -30.0490 H       180        0    0.0000
   1085 H         168.8610  191.7542  -31.5391 H       180        0    0.0000
   1086 H         170.5883  192.0928  -31.5414 H       180        0    0.0000
   1087 C         170.0385  190.3151  -32.6846 C.3     181        0    0.0000
   1088 C         169.8993  191.0370  -34.0294 C.3     181        0    0.0000
   1089 H         171.0262  189.8434  -32.6113 H       181        0    0.0000
   1090 H         169.2982  189.5087  -32.6122 H       181        0    0.0000
   1091 H         168.9104  191.5060  -34.1040 H       181        0    0.0000
   1092 H         170.6375  191.8455  -34.1004 H       181        0    0.0000
   1093 C         170.0923  190.0682  -35.2466 C.3     182        0    0.0000
   1094 C         169.9471  190.7890  -36.5914 C.3     182        0    0.0000
   1095 H         171.0830  189.6026  -35.1743 H       182        0    0.0000
   1096 H         169.3570  189.2573  -35.1731 H       182        0    0.0000
   1097 H         168.9569  191.2557  -36.6630 H       182        0    0.0000
   1098 H         170.6833  191.5990  -36.6654 H       182        0    0.0000
   1099 C         170.1382  189.8197  -37.8086 C.3     183        0    0.0000
   1100 C         169.9957  190.5410  -39.1534 C.3     183        0    0.0000
   1101 H         171.1277  189.3516  -37.7358 H       183        0    0.0000
   1102 H         169.4008  189.0108  -37.7356 H       183        0    0.0000
   1103 H         169.0053  191.0072  -39.2271 H       183        0    0.0000
   1104 H         170.7315  191.3515  -39.2253 H       183        0    0.0000
   1105 C         170.1902  189.5725  -40.3705 C.3     184        0    0.0000
   1106 C         170.0450  190.2933  -41.7153 C.3     184        0    0.0000
   1107 H         171.1813  189.1078  -40.2978 H       184        0    0.0000
   1108 H         169.4556  188.7609  -40.2975 H       184        0    0.0000
   1109 H         170.3517  189.6293  -42.5330 H       184        0    0.0000
   1110 H         168.9931  190.5480  -41.8940 H       184        0    0.0000
   1111 C         170.9009  191.6050  -41.7817 C.3     185        0    0.0000
   1112 C         170.4048  192.5680  -42.8659 C.3     185        0    0.0000
   1113 H         170.8724  192.0958  -40.8010 H       185        0    0.0000
   1114 H         171.9477  191.3351  -41.9686 H       185        0    0.0000
   1115 H         170.4333  192.0772  -43.8467 H       185        0    0.0000
   1116 H         169.3580  192.8378  -42.6790 H       185        0    0.0000
   1117 H         170.9999  193.4800  -42.9121 H       185        0    0.0000
   1118 H         189.2798   18.5487  -40.4349 H         0        0    0.0000
@<TRIPOS>BOND
     1     1     2      1
     2     1     3      1
     3     1     4      1
     4     1  1118      H
     5     2     5      1
     6     2     6      1
     7     2     7      1
     8     7     8      1
     9     7     9      1
    10     7    10      1
    11     8    11      1
    12     8    12      1
    13     8    13      1
    14    13    14      1
    15    13    15      1
    16    13    16      1
    17    14    17      1
    18    14    18      1
    19    14    19      1
    20    19    20      1
    21    19    21      1
    22    19    22      1
    23    20    23      1
    24    20    24      1
    25    20    25      1
    26    25    26      1
    27    25    27      1
    28    25    28      1
    29    26    29      1
    30    26    30      1
    31    26    31      1
    32    31    32      1
    33    31    33      1
    34    31    34      1
    35    32    35      1
    36    32    36      1
    37    32    37      1
    38    37    38      1
    39    37    39      1
    40    37    40      1
    41    38    41      1
    42    38    42      1
    43    38    43      1
    44    43    44      1
    45    43    45      1
    46    43    46      1
    47    44    47      1
    48    44    48      1
    49    44    49      1
    50    49    50      1
    51    49    51      1
    52    49    52      1
    53    50    53      1
    54    50    54      1
    55    50    55      1
    56    55    56      1
    57    55    57      1
    58    55    58      1
    59    56    59      1
    60    56    60      1
    61    56    61      1
    62    61    62      1
    63    61    63      1
    64    61    64      1
    65    62    65      1
    66    62    66      1
    67    62    67      1
    68    67    68      1
    69    67    69      1
    70    67    70      1
    71    68    71      1
    72    68    72      1
    73    68    73      1
    74    73    74      1
    75    73    75      1
    76    73    76      1
    77    74    77      1
    78    74    78      1
    79    74    79      1
    80    79    80      1
    81    79    81      1
    82    79    82      1
    83    80    83      1
    84    80    84      1
    85    80    85      1
    86    85    86      1
    87    85    87      1
    88    85    88      1
    89    86    89      1
    90    86    90      1
    91    86    91      1
    92    91    92      1
    93    91    93      1
    94    91    94      1
    95    92    95      1
    96    92    96      1
    97    92    97      1
    98    97    98      1
    99    97    99      1
   100    97   100      1
   101    98   101      1
   102    98   102      1
   103    98   103      1
   104   103   104      1
   105   103   105      1
   106   103   106      1
   107   104   107      1
   108   104   108      1
   109   104   109      1
   110   109   110      1
   111   109   111      1
   112   109   112      1
   113   110   113      1
   114   110   114      1
   115   110   115      1
   116   115   116      1
   117   115   117      1
   118   115   118      1
   119   116   119      1
   120   116   120      1
   121   116   121      1
   122   121   122      1
   123   121   123      1
   124   121   124      1
   125   122   125      1
   126   122   126      1
   127   122   127      1
   128   127   128      1
   129   127   129      1
   130   127   130      1
   131   128   131      1
   132   128   132      1
   133   128   133      1
   134   133   134      1
   135   133   135      1
   136   133   136      1
   137   134   137      1
   138   134   138      1
   139   134   139      1
   140   139   140      1
   141   139   141      1
   142   139   142      1
   143   140   143      1
   144   140   144      1
   145   140   145      1
   146   145   146      1
   147   145   147      1
   148   145   148      1
   149   146   149      1
   150   146   150      1
   151   146   151      1
   152   151   152      1
   153   151   153      1
   154   151   154      1
   155   152   155      1
   156   152   156      1
   157   152   157      1
   158   157   158      1
   159   157   159      1
   160   157   160      1
   161   158   161      1
   162   158   162      1
   163   158   163      1
   164   163   164      1
   165   163   165      1
   166   163   166      1
   167   164   167      1
   168   164   168      1
   169   164   169      1
   170   169   170      1
   171   169   171      1
   172   169   172      1
   173   170   173      1
   174   170   174      1
   175   170   175      1
   176   175   176      1
   177   175   177      1
   178   175   178      1
   179   176   179      1
   180   176   180      1
   181   176   181      1
   182   181   182      1
   183   181   183      1
   184   181   184      1
   185   182   185      1
   186   182   186      1
   187   182   187      1
   188   187   188      1
   189   187   189      1
   190   187   190      1
   191   188   191      1
   192   188   192      1
   193   188   193      1
   194   193   194      1
   195   193   195      1
   196   193   196      1
   197   194   197      1
   198   194   198      1
   199   194   199      1
   200   199   200      1
   201   199   201      1
   202   199   202      1
   203   200   203      1
   204   200   204      1
   205   200   205      1
   206   205   206      1
   207   205   207      1
   208   205   208      1
   209   206   209      1
   210   206   210      1
   211   206   211      1
   212   211   212      1
   213   211   213      1
   214   211   214      1
   215   212   215      1
   216   212   216      1
   217   212   217      1
   218   217   218      1
   219   217   219      1
   220   217   220      1
   221   218   221      1
   222   218   222      1
   223   218   223      1
   224   223   224      1
   225   223   225      1
   226   223   226      1
   227   224   227      1
   228   224   228      1
   229   224   229      1
   230   229   230      1
   231   229   231      1
   232   229   232      1
   233   230   233      1
   234   230   234      1
   235   230   235      1
   236   235   236      1
   237   235   237      1
   238   235   238      1
   239   236   239      1
   240   236   240      1
   241   236   241      1
   242   241   242      1
   243   241   243      1
   244   241   244      1
   245   242   245      1
   246   242   246      1
   247   242   247      1
   248   247   248      1
   249   247   249      1
   250   247   250      1
   251   248   251      1
   252   248   252      1
   253   248   253      1
   254   253   254      1
   255   253   255      1
   256   253   256      1
   257   254   257      1
   258   254   258      1
   259   254   259      1
   260   259   260      1
   261   259   261      1
   262   259   262      1
   263   260   263      1
   264   260   264      1
   265   260   265      1
   266   265   266      1
   267   265   267      1
   268   265   268      1
   269   266   269      1
   270   266   270      1
   271   266   271      1
   272   271   272      1
   273   271   273      1
   274   271   274      1
   275   272   275      1
   276   272   276      1
   277   272   277      1
   278   277   278      1
   279   277   279      1
   280   277   280      1
   281   278   281      1
   282   278   282      1
   283   278   283      1
   284   283   284      1
   285   283   285      1
   286   283   286      1
   287   284   287      1
   288   284   288      1
   289   284   289      1
   290   289   290      1
   291   289   291      1
   292   289   292      1
   293   290   293      1
   294   290   294      1
   295   290   295      1
   296   295   296      1
   297   295   297      1
   298   295   298      1
   299   296   299      1
   300   296   300      1
   301   296   301      1
   302   301   302      1
   303   301   303      1
   304   301   304      1
   305   302   305      1
   306   302   306      1
   307   302   307      1
   308   307   308      1
   309   307   309      1
   310   307   310      1
   311   308   311      1
   312   308   312      1
   313   308   313      1
   314   313   314      1
   315   313   315      1
   316   313   316      1
   317   314   317      1
   318   314   318      1
   319   314   319      1
   320   319   320      1
   321   319   321      1
   322   319   322      1
   323   320   323      1
   324   320   324      1
   325   320   325      1
   326   325   326      1
   327   325   327      1
   328   325   328      1
   329   326   329      1
   330   326   330      1
   331   326   331      1
   332   331   332      1
   333   331   333      1
   334   331   334      1
   335   332   335      1
   336   332   336      1
   337   332   337      1
   338   337   338      1
   339   337   339      1
   340   337   340      1
   341   338   341      1
   342   338   342      1
   343   338   343      1
   344   343   344      1
   345   343   345      1
   346   343   346      1
   347   344   347      1
   348   344   348      1
   349   344   349      1
   350   349   350      1
   351   349   351      1
   352   349   352      1
   353   350   353      1
   354   350   354      1
   355   350   355      1
   356   355   356      1
   357   355   357      1
   358   355   358      1
   359   356   359      1
   360   356   360      1
   361   356   361      1
   362   361   362      1
   363   361   363      1
   364   361   364      1
   365   362   365      1
   366   362   366      1
   367   362   367      1
   368   367   368      1
   369   367   369      1
   370   367   370      1
   371   368   371      1
   372   368   372      1
   373   368   373      1
   374   373   374      1
   375   373   375      1
   376   373   376      1
   377   374   377      1
   378   374   378      1
   379   374   379      1
   380   379   380      1
   381   379   381      1
   382   379   382      1
   383   380   383      1
   384   380   384      1
   385   380   385      1
   386   385   386      1
   387   385   387      1
   388   385   388      1
   389   386   389      1
   390   386   390      1
   391   386   391      1
   392   391   392      1
   393   391   393      1
   394   391   394      1
   395   392   395      1
   396   392   396      1
   397   392   397      1
   398   397   398      1
   399   397   399      1
   400   397   400      1
   401   398   401      1
   402   398   402      1
   403   398   403      1
   404   403   404      1
   405   403   405      1
   406   403   406      1
   407   404   407      1
   408   404   408      1
   409   404   409      1
   410   409   410      1
   411   409   411      1
   412   409   412      1
   413   410   413      1
   414   410   414      1
   415   410   415      1
   416   415   416      1
   417   415   417      1
   418   415   418      1
   419   416   419      1
   420   416   420      1
   421   416   421      1
   422   421   422      1
   423   421   423      1
   424   421   424      1
   425   422   425      1
   426   422   426      1
   427   422   427      1
   428   427   428      1
   429   427   429      1
   430   427   430      1
   431   428   431      1
   432   428   432      1
   433   428   433      1
   434   433   434      1
   435   433   435      1
   436   433   436      1
   437   434   437      1
   438   434   438      1
   439   434   439      1
   440   439   440      1
   441   439   441      1
   442   439   442      1
   443   440   443      1
   444   440   444      1
   445   440   445      1
   446   445   446      1
   447   445   447      1
   448   445   448      1
   449   446   449      1
   450   446   450      1
   451   446   451      1
   452   451   452      1
   453   451   453      1
   454   451   454      1
   455   452   455      1
   456   452   456      1
   457   452   457      1
   458   457   458      1
   459   457   459      1
   460   457   460      1
   461   458   461      1
   462   458   462      1
   463   458   463      1
   464   463   464      1
   465   463   465      1
   466   463   466      1
   467   464   467      1
   468   464   468      1
   469   464   469      1
   470   469   470      1
   471   469   471      1
   472   469   472      1
   473   470   473      1
   474   470   474      1
   475   470   475      1
   476   475   476      1
   477   475   477      1
   478   475   478      1
   479   476   479      1
   480   476   480      1
   481   476   481      1
   482   481   482      1
   483   481   483      1
   484   481   484      1
   485   482   485      1
   486   482   486      1
   487   482   487      1
   488   487   488      1
   489   487   489      1
   490   487   490      1
   491   488   491      1
   492   488   492      1
   493   488   493      1
   494   493   494      1
   495   493   495      1
   496   493   496      1
   497   494   497      1
   498   494   498      1
   499   494   499      1
   500   499   500      1
   501   499   501      1
   502   499   502      1
   503   500   503      1
   504   500   504      1
   505   500   505      1
   506   505   506      1
   507   505   507      1
   508   505   508      1
   509   506   509      1
   510   506   510      1
   511   506   511      1
   512   511   512      1
   513   511   513      1
   514   511   514      1
   515   512   515      1
   516   512   516      1
   517   512   517      1
   518   517   518      1
   519   517   519      1
   520   517   520      1
   521   518   521      1
   522   518   522      1
   523   518   523      1
   524   523   524      1
   525   523   525      1
   526   523   526      1
   527   524   527      1
   528   524   528      1
   529   524   529      1
   530   529   530      1
   531   529   531      1
   532   529   532      1
   533   530   533      1
   534   530   534      1
   535   530   535      1
   536   535   536      1
   537   535   537      1
   538   535   538      1
   539   536   539      1
   540   536   540      1
   541   536   541      1
   542   541   542      1
   543   541   543      1
   544   541   544      1
   545   542   545      1
   546   542   546      1
   547   542   547      1
   548   547   548      1
   549   547   549      1
   550   547   550      1
   551   548   551      1
   552   548   552      1
   553   548   553      1
   554   553   554      1
   555   553   555      1
   556   553   556      1
   557   554   557      1
   558   554   558      1
   559   554   559      1
   560   559   560      1
   561   559   561      1
   562   559   562      1
   563   560   563      1
   564   560   564      1
   565   560   565      1
   566   565   566      1
   567   565   567      1
   568   565   568      1
   569   566   569      1
   570   566   570      1
   571   566   571      1
   572   571   572      1
   573   571   573      1
   574   571   574      1
   575   572   575      1
   576   572   576      1
   577   572   577      1
   578   577   578      1
   579   577   579      1
   580   577   580      1
   581   578   581      1
   582   578   582      1
   583   578   583      1
   584   583   584      1
   585   583   585      1
   586   583   586      1
   587   584   587      1
   588   584   588      1
   589   584   589      1
   590   589   590      1
   591   589   591      1
   592   589   592      1
   593   590   593      1
   594   590   594      1
   595   590   595      1
   596   595   596      1
   597   595   597      1
   598   595   598      1
   599   596   599      1
   600   596   600      1
   601   596   601      1
   602   601   602      1
   603   601   603      1
   604   601   604      1
   605   602   605      1
   606   602   606      1
   607   602   607      1
   608   607   608      1
   609   607   609      1
   610   607   610      1
   611   608   611      1
   612   608   612      1
   613   608   613      1
   614   613   614      1
   615   613   615      1
   616   613   616      1
   617   614   617      1
   618   614   618      1
   619   614   619      1
   620   619   620      1
   621   619   621      1
   622   619   622      1
   623   620   623      1
   624   620   624      1
   625   620   625      1
   626   625   626      1
   627   625   627      1
   628   625   628      1
   629   626   629      1
   630   626   630      1
   631   626   631      1
   632   631   632      1
   633   631   633      1
   634   631   634      1
   635   632   635      1
   636   632   636      1
   637   632   637      1
   638   637   638      1
   639   637   639      1
   640   637   640      1
   641   638   641      1
   642   638   642      1
   643   638   643      1
   644   643   644      1
   645   643   645      1
   646   643   646      1
   647   644   647      1
   648   644   648      1
   649   644   649      1
   650   649   650      1
   651   649   651      1
   652   649   652      1
   653   650   653      1
   654   650   654      1
   655   650   655      1
   656   655   656      1
   657   655   657      1
   658   655   658      1
   659   656   659      1
   660   656   660      1
   661   656   661      1
   662   661   662      1
   663   661   663      1
   664   661   664      1
   665   662   665      1
   666   662   666      1
   667   662   667      1
   668   667   668      1
   669   667   669      1
   670   667   670      1
   671   668   671      1
   672   668   672      1
   673   668   673      1
   674   673   674      1
   675   673   675      1
   676   673   676      1
   677   674   677      1
   678   674   678      1
   679   674   679      1
   680   679   680      1
   681   679   681      1
   682   679   682      1
   683   680   683      1
   684   680   684      1
   685   680   685      1
   686   685   686      1
   687   685   687      1
   688   685   688      1
   689   686   689      1
   690   686   690      1
   691   686   691      1
   692   691   692      1
   693   691   693      1
   694   691   694      1
   695   692   695      1
   696   692   696      1
   697   692   697      1
   698   697   698      1
   699   697   699      1
   700   697   700      1
   701   698   701      1
   702   698   702      1
   703   698   703      1
   704   703   704      1
   705   703   705      1
   706   703   706      1
   707   704   707      1
   708   704   708      1
   709   704   709      1
   710   709   710      1
   711   709   711      1
   712   709   712      1
   713   710   713      1
   714   710   714      1
   715   710   715      1
   716   715   716      1
   717   715   717      1
   718   715   718      1
   719   716   719      1
   720   716   720      1
   721   716   721      1
   722   721   722      1
   723   721   723      1
   724   721   724      1
   725   722   725      1
   726   722   726      1
   727   722   727      1
   728   727   728      1
   729   727   729      1
   730   727   730      1
   731   728   731      1
   732   728   732      1
   733   728   733      1
   734   733   734      1
   735   733   735      1
   736   733   736      1
   737   734   737      1
   738   734   738      1
   739   734   739      1
   740   739   740      1
   741   739   741      1
   742   739   742      1
   743   740   743      1
   744   740   744      1
   745   740   745      1
   746   745   746      1
   747   745   747      1
   748   745   748      1
   749   746   749      1
   750   746   750      1
   751   746   751      1
   752   751   752      1
   753   751   753      1
   754   751   754      1
   755   752   755      1
   756   752   756      1
   757   752   757      1
   758   757   758      1
   759   757   759      1
   760   757   760      1
   761   758   761      1
   762   758   762      1
   763   758   763      1
   764   763   764      1
   765   763   765      1
   766   763   766      1
   767   764   767      1
   768   764   768      1
   769   764   769      1
   770   769   770      1
   771   769   771      1
   772   769   772      1
   773   770   773      1
   774   770   774      1
   775   770   775      1
   776   775   776      1
   777   775   777      1
   778   775   778      1
   779   776   779      1
   780   776   780      1
   781   776   781      1
   782   781   782      1
   783   781   783      1
   784   781   784      1
   785   782   785      1
   786   782   786      1
   787   782   787      1
   788   787   788      1
   789   787   789      1
   790   787   790      1
   791   788   791      1
   792   788   792      1
   793   788   793      1
   794   793   794      1
   795   793   795      1
   796   793   796      1
   797   794   797      1
   798   794   798      1
   799   794   799      1
   800   799   800      1
   801   799   801      1
   802   799   802      1
   803   800   803      1
   804   800   804      1
   805   800   805      1
   806   805   806      1
   807   805   807      1
   808   805   808      1
   809   806   809      1
   810   806   810      1
   811   806   811      1
   812   811   812      1
   813   811   813      1
   814   811   814      1
   815   812   815      1
   816   812   816      1
   817   812   817      1
   818   817   818      1
   819   817   819      1
   820   817   820      1
   821   818   821      1
   822   818   822      1
   823   818   823      1
   824   823   824      1
   825   823   825      1
   826   823   826      1
   827   824   827      1
   828   824   828      1
   829   824   829      1
   830   829   830      1
   831   829   831      1
   832   829   832      1
   833   830   833      1
   834   830   834      1
   835   830   835      1
   836   835   836      1
   837   835   837      1
   838   835   838      1
   839   836   839      1
   840   836   840      1
   841   836   841      1
   842   841   842      1
   843   841   843      1
   844   841   844      1
   845   842   845      1
   846   842   846      1
   847   842   847      1
   848   847   848      1
   849   847   849      1
   850   847   850      1
   851   848   851      1
   852   848   852      1
   853   848   853      1
   854   853   854      1
   855   853   855      1
   856   853   856      1
   857   854   857      1
   858   854   858      1
   859   854   859      1
   860   859   860      1
   861   859   861      1
   862   859   862      1
   863   860   863      1
   864   860   864      1
   865   860   865      1
   866   865   866      1
   867   865   867      1
   868   865   868      1
   869   866   869      1
   870   866   870      1
   871   866   871      1
   872   871   872      1
   873   871   873      1
   874   871   874      1
   875   872   875      1
   876   872   876      1
   877   872   877      1
   878   877   878      1
   879   877   879      1
   880   877   880      1
   881   878   881      1
   882   878   882      1
   883   878   883      1
   884   883   884      1
   885   883   885      1
   886   883   886      1
   887   884   887      1
   888   884   888      1
   889   884   889      1
   890   889   890      1
   891   889   891      1
   892   889   892      1
   893   890   893      1
   894   890   894      1
   895   890   895      1
   896   895   896      1
   897   895   897      1
   898   895   898      1
   899   896   899      1
   900   896   900      1
   901   896   901      1
   902   901   902      1
   903   901   903      1
   904   901   904      1
   905   902   905      1
   906   902   906      1
   907   902   907      1
   908   907   908      1
   909   907   909      1
   910   907   910      1
   911   908   911      1
   912   908   912      1
   913   908   913      1
   914   913   914      1
   915   913   915      1
   916   913   916      1
   917   914   917      1
   918   914   918      1
   919   914   919      1
   920   919   920      1
   921   919   921      1
   922   919   922      1
   923   920   923      1
   924   920   924      1
   925   920   925      1
   926   925   926      1
   927   925   927      1
   928   925   928      1
   929   926   929      1
   930   926   930      1
   931   926   931      1
   932   931   932      1
   933   931   933      1
   934   931   934      1
   935   932   935      1
   936   932   936      1
   937   932   937      1
   938   937   938      1
   939   937   939      1
   940   937   940      1
   941   938   941      1
   942   938   942      1
   943   938   943      1
   944   943   944      1
   945   943   945      1
   946   943   946      1
   947   944   947      1
   948   944   948      1
   949   944   949      1
   950   949   950      1
   951   949   951      1
   952   949   952      1
   953   950   953      1
   954   950   954      1
   955   950   955      1
   956   955   956      1
   957   955   957      1
   958   955   958      1
   959   956   959      1
   960   956   960      1
   961   956   961      1
   962   961   962      1
   963   961   963      1
   964   961   964      1
   965   962   965      1
   966   962   966      1
   967   962   967      1
   968   967   968      1
   969   967   969      1
   970   967   970      1
   971   968   971      1
   972   968   972      1
   973   968   973      1
   974   973   974      1
   975   973   975      1
   976   973   976      1
   977   974   977      1
   978   974   978      1
   979   974   979      1
   980   979   980      1
   981   979   981      1
   982   979   982      1
   983   980   983      1
   984   980   984      1
   985   980   985      1
   986   985   986      1
   987   985   987      1
   988   985   988      1
   989   986   989      1
   990   986   990      1
   991   986   991      1
   992   991   992      1
   993   991   993      1
   994   991   994      1
   995   992   995      1
   996   992   996      1
   997   992   997      1
   998   997   998      1
   999   997   999      1
  1000   997  1000      1
  1001   998  1001      1
  1002   998  1002      1
  1003   998  1003      1
  1004  1003  1004      1
  1005  1003  1005      1
  1006  1003  1006      1
  1007  1004  1007      1
  1008  1004  1008      1
  1009  1004  1009      1
  1010  1009  1010      1
  1011  1009  1011      1
  1012  1009  1012      1
  1013  1010  1013      1
  1014  1010  1014      1
  1015  1010  1015      1
  1016  1015  1016      1
  1017  1015  1017      1
  1018  1015  1018      1
  1019  1016  1019      1
  1020  1016  1020      1
  1021  1016  1021      1
  1022  1021  1022      1
  1023  1021  1023      1
  1024  1021  1024      1
  1025  1022  1025      1
  1026  1022  1026      1
  1027  1022  1027      1
  1028  1027  1028      1
  1029  1027  1029      1
  1030  1027  1030      1
  1031  1028  1031      1
  1032  1028  1032      1
  1033  1028  1033      1
  1034  1033  1034      1
  1035  1033  1035      1
  1036  1033  1036      1
  1037  1034  1037      1
  1038  1034  1038      1
  1039  1034  1039      1
  1040  1039  1040      1
  1041  1039  1041      1
  1042  1039  1042      1
  1043  1040  1043      1
  1044  1040  1044      1
  1045  1040  1045      1
  1046  1045  1046      1
  1047  1045  1047      1
  1048  1045  1048      1
  1049  1046  1049      1
  1050  1046  1050      1
  1051  1046  1051      1
  1052  1051  1052      1
  1053  1051  1053      1
  1054  1051  1054      1
  1055  1052  1055      1
  1056  1052  1056      1
  1057  1052  1057      1
  1058  1057  1058      1
  1059  1057  1059      1
  1060  1057  1060      1
  1061  1058  1061      1
  1062  1058  1062      1
  1063  1058  1063      1
  1064  1063  1064      1
  1065  1063  1065      1
  1066  1063  1066      1
  1067  1064  1067      1
  1068  1064  1068      1
  1069  1064  1069      1
  1070  1069  1070      1
  1071  1069  1071      1
  1072  1069  1072      1
  1073  1070  1073      1
  1074  1070  1074      1
  1075  1070  1075      1
  1076  1075  1076      1
  1077  1075  1077      1
  1078  1075  1078      1
  1079  1076  1079      1
  1080  1076  1080      1
  1081  1076  1081      1
  1082  1081  1082      1
  1083  1081  1083      1
  1084  1081  1084      1
  1085  1082  1085      1
  1086  1082  1086      1
  1087  1082  1087      1
  1088  1087  1088      1
  1089  1087  1089      1
  1090  1087  1090      1
  1091  1088  1091      1
  1092  1088  1092      1
  1093  1088  1093      1
  1094  1093  1094      1
  1095  1093  1095      1
  1096  1093  1096      1
  1097  1094  1097      1
  1098  1094  1098      1
  1099  1094  1099      1
  1100  1099  1100      1
  1101  1099  1101      1
  1102  1099  1102      1
  1103  1100  1103      1
  1104  1100  1104      1
  1105  1100  1105      1
  1106  1105  1106      1
  1107  1105  1107      1
  1108  1105  1108      1
  1109  1106  1109      1
  1110  1106  1110      1
  1111  1106  1111      1
  1112  1111  1112      1
  1113  1111  1113      1
  1114  1111  1114      1
  1115  1112  1115      1
  1116  1112  1116      1
  1117  1112  1117      H
