###
### Created by PolyChef-cpp17 on Thu Feb 27 19:40:28 2025
###

@<TRIPOS>MOLECULE
NO_INFO
296 295 1 0 0
SMALL
USER_CHARGES


@<TRIPOS>ATOM
      1 C          69.2798   53.1887  -39.3449 C.3       0        0    0.0000
      2 C          67.8706   53.0282  -38.7641 C.3       0        0    0.0000
      3 H          69.9271   52.3766  -38.9913 H         0        0    0.0000
      4 H          69.7280   54.1255  -38.9913 H         0        0    0.0000
      5 H          67.3722   54.0041  -38.7109 H         0        0    0.0000
      6 H          67.2610   52.3987  -39.4243 H         0        0    0.0000
      7 C          67.8873   52.3907  -37.3320 C.3       1        0    0.0000
      8 C          69.1651   52.7339  -36.5584 C.3       1        0    0.0000
      9 H          67.0071   52.7409  -36.7788 H         1        0    0.0000
     10 H          67.7866   51.3025  -37.4282 H         1        0    0.0000
     11 H          70.0456   52.5537  -37.1875 H         1        0    0.0000
     12 H          69.1743   53.8004  -36.3015 H         1        0    0.0000
     13 C          69.3052   51.8957  -35.2411 C.3       2        0    0.0000
     14 C          70.2094   52.5805  -34.2103 C.3       2        0    0.0000
     15 H          68.3065   51.7340  -34.8169 H         2        0    0.0000
     16 H          69.7046   50.9054  -35.4929 H         2        0    0.0000
     17 H          71.2625   52.4523  -34.4896 H         2        0    0.0000
     18 H          70.0158   53.6602  -34.1985 H         2        0    0.0000
     19 C          69.9976   52.0133  -32.7643 C.3       3        0    0.0000
     20 C          70.6305   52.9063  -31.6915 C.3       3        0    0.0000
     21 H          68.9212   51.9087  -32.5796 H         3        0    0.0000
     22 H          70.4252   51.0042  -32.7141 H         3        0    0.0000
     23 H          71.7197   52.9338  -31.8197 H         3        0    0.0000
     24 H          70.2741   53.9379  -31.8026 H         3        0    0.0000
     25 C          70.3049   52.4128  -30.2397 C.3       4        0    0.0000
     26 C          70.9212   53.3172  -29.1668 C.3       4        0    0.0000
     27 H          69.2155   52.3713  -30.1163 H         4        0    0.0000
     28 H          70.6743   51.3863  -30.1240 H         4        0    0.0000
     29 H          72.0110   53.3547  -29.2871 H         4        0    0.0000
     30 H          70.5556   54.3447  -29.2856 H         4        0    0.0000
     31 C          70.5897   52.8276  -27.7150 C.3       5        0    0.0000
     32 C          71.2044   53.7332  -26.6421 C.3       5        0    0.0000
     33 H          69.4999   52.7887  -27.5951 H         5        0    0.0000
     34 H          70.9566   51.8007  -27.5957 H         5        0    0.0000
     35 H          72.2944   53.7707  -26.7608 H         5        0    0.0000
     36 H          70.8389   54.7606  -26.7625 H         5        0    0.0000
     37 C          70.8708   53.2451  -25.1902 C.3       6        0    0.0000
     38 C          71.5118   54.1324  -24.1174 C.3       6        0    0.0000
     39 H          69.7811   53.2299  -25.0639 H         6        0    0.0000
     40 H          71.2154   52.2097  -25.0773 H         6        0    0.0000
     41 H          72.6011   54.1509  -24.2463 H         6        0    0.0000
     42 H          71.1639   55.1669  -24.2277 H         6        0    0.0000
     43 C          71.1831   53.6408  -22.6656 C.3       7        0    0.0000
     44 C          71.0098   54.8046  -21.6836 C.3       7        0    0.0000
     45 H          70.2690   53.0349  -22.6959 H         7        0    0.0000
     46 H          71.9889   52.9785  -22.3256 H         7        0    0.0000
     47 H          71.9665   55.3223  -21.5412 H         7        0    0.0000
     48 H          70.3103   55.5429  -22.0949 H         7        0    0.0000
     49 C          70.4796   54.3296  -20.2869 C.3       8        0    0.0000
     50 C          71.3829   54.7872  -19.1364 C.3       8        0    0.0000
     51 H          69.4632   54.7169  -20.1441 H         8        0    0.0000
     52 H          70.4019   53.2353  -20.2917 H         8        0    0.0000
     53 H          72.4310   54.7930  -19.4605 H         8        0    0.0000
     54 H          71.1357   55.8172  -18.8509 H         8        0    0.0000
     55 C          71.2494   53.8672  -17.8742 C.3       9        0    0.0000
     56 C          70.9681   54.6686  -16.5984 C.3       9        0    0.0000
     57 H          70.4443   53.1426  -18.0483 H         9        0    0.0000
     58 H          72.1743   53.2887  -17.7588 H         9        0    0.0000
     59 H          71.8751   55.1960  -16.2778 H         9        0    0.0000
     60 H          70.2103   55.4369  -16.7961 H         9        0    0.0000
     61 C          70.4704   53.7588  -15.4228 C.3      10        0    0.0000
     62 C          70.8645   54.3157  -14.0504 C.3      10        0    0.0000
     63 H          69.3799   53.6598  -15.4896 H        10        0    0.0000
     64 H          70.8867   52.7523  -15.5541 H        10        0    0.0000
     65 H          71.9380   54.5409  -14.0300 H        10        0    0.0000
     66 H          70.3407   55.2613  -13.8635 H        10        0    0.0000
     67 C          70.5355   53.3174  -12.8874 C.3      11        0    0.0000
     68 C          70.7635   53.9399  -11.5055 C.3      11        0    0.0000
     69 H          69.4926   52.9914  -12.9856 H        11        0    0.0000
     70 H          71.1579   52.4215  -13.0037 H        11        0    0.0000
     71 H          71.8151   54.2315  -11.3932 H        11        0    0.0000
     72 H          70.1697   54.8567  -11.4034 H        11        0    0.0000
     73 C          70.3840   52.9599  -10.3424 C.3      12        0    0.0000
     74 C          70.6206   53.5791   -8.9605 C.3      12        0    0.0000
     75 H          69.3306   52.6734  -10.4509 H        12        0    0.0000
     76 H          70.9730   52.0404  -10.4484 H        12        0    0.0000
     77 H          71.6732   53.8690   -8.8534 H        12        0    0.0000
     78 H          70.0287   54.4966   -8.8532 H        12        0    0.0000
     79 C          70.2460   52.5972   -7.7974 C.3      13        0    0.0000
     80 C          70.4654   53.2229   -6.4156 C.3      13        0    0.0000
     81 H          69.1971   52.2969   -7.9121 H        13        0    0.0000
     82 H          70.8475   51.6851   -7.8971 H        13        0    0.0000
     83 H          71.5162   53.5152   -6.2976 H        13        0    0.0000
     84 H          69.8706   54.1397   -6.3191 H        13        0    0.0000
     85 C          70.0792   52.2453   -5.2526 C.3      14        0    0.0000
     86 C          70.2448   52.8906   -3.8723 C.3      14        0    0.0000
     87 H          69.0409   51.9204   -5.3938 H        14        0    0.0000
     88 H          70.7033   51.3460   -5.3247 H        14        0    0.0000
     89 H          71.2913   53.1800   -3.7154 H        14        0    0.0000
     90 H          69.6512   53.8113   -3.8138 H        14        0    0.0000
     91 C          69.8062   51.9321   -2.7119 C.3      15        0    0.0000
     92 C          70.0409   52.5492   -1.3288 C.3      15        0    0.0000
     93 H          68.7446   51.6860   -2.8388 H        15        0    0.0000
     94 H          70.3610   50.9901   -2.8026 H        15        0    0.0000
     95 H          71.0312   53.0198   -1.2899 H        15        0    0.0000
     96 H          69.3073   53.3431   -1.1416 H        15        0    0.0000
     97 C          69.9406   51.4875   -0.1798 C.3      16        0    0.0000
     98 C          70.3559   52.0615    1.1793 C.3      16        0    0.0000
     99 H          68.9099   51.1149   -0.1316 H        16        0    0.0000
    100 H          70.5743   50.6291   -0.4351 H        16        0    0.0000
    101 H          71.3417   52.5366    1.1016 H        16        0    0.0000
    102 H          69.6522   52.8445    1.4879 H        16        0    0.0000
    103 C          70.4112   50.9630    2.2963 C.3      17        0    0.0000
    104 C          70.9119   51.5193    3.6338 C.3      17        0    0.0000
    105 H          69.4094   50.5329    2.4192 H        17        0    0.0000
    106 H          71.0645   50.1486    1.9594 H        17        0    0.0000
    107 H          71.8960   51.9860    3.5023 H        17        0    0.0000
    108 H          70.2355   52.3056    3.9910 H        17        0    0.0000
    109 C          71.0223   50.4090    4.7350 C.3      18        0    0.0000
    110 C          71.7166   50.9164    6.0037 C.3      18        0    0.0000
    111 H          70.0146   50.0487    4.9762 H        18        0    0.0000
    112 H          71.5719   49.5543    4.3216 H        18        0    0.0000
    113 H          72.6934   51.3473    5.7513 H        18        0    0.0000
    114 H          71.1260   51.7205    6.4599 H        18        0    0.0000
    115 C          71.9245   49.7791    7.0624 C.3      19        0    0.0000
    116 C          73.1831   49.9970    7.9095 C.3      19        0    0.0000
    117 H          71.0395   49.7318    7.7090 H        19        0    0.0000
    118 H          71.9847   48.8163    6.5400 H        19        0    0.0000
    119 H          74.0320   50.2523    7.2631 H        19        0    0.0000
    120 H          73.0374   50.8464    8.5882 H        19        0    0.0000
    121 C          73.5557   48.7315    8.7564 C.3      20        0    0.0000
    122 C          75.0606   48.4417    8.7365 C.3      20        0    0.0000
    123 H          73.2156   48.8839    9.7882 H        20        0    0.0000
    124 H          73.0013   47.8690    8.3661 H        20        0    0.0000
    125 H          75.4802   48.6989    7.7561 H        20        0    0.0000
    126 H          75.5745   49.0705    9.4740 H        20        0    0.0000
    127 C          75.3801   46.9381    9.0442 C.3      21        0    0.0000
    128 C          76.5168   46.3954    8.1710 C.3      21        0    0.0000
    129 H          75.6422   46.8423   10.1052 H        21        0    0.0000
    130 H          74.4706   46.3445    8.8895 H        21        0    0.0000
    131 H          76.3720   46.7065    7.1290 H        21        0    0.0000
    132 H          77.4755   46.8185    8.4957 H        21        0    0.0000
    133 C          76.6111   44.8315    8.2230 C.3      22        0    0.0000
    134 C          77.9717   44.3484    8.7372 C.3      22        0    0.0000
    135 H          75.8087   44.4501    8.8666 H        22        0    0.0000
    136 H          76.4255   44.4324    7.2181 H        22        0    0.0000
    137 H          78.7219   44.4194    7.9399 H        22        0    0.0000
    138 H          78.3168   44.9955    9.5531 H        22        0    0.0000
    139 C          77.9207   42.8689    9.2528 C.3      23        0    0.0000
    140 C          78.7930   41.9303    8.4118 C.3      23        0    0.0000
    141 H          78.2470   42.8479   10.3000 H        23        0    0.0000
    142 H          76.8788   42.5258    9.2405 H        23        0    0.0000
    143 H          78.8580   42.3001    7.3810 H        23        0    0.0000
    144 H          79.8167   41.9143    8.8059 H        23        0    0.0000
    145 C          78.2375   40.4646    8.3888 C.3      24        0    0.0000
    146 C          78.9922   39.5729    7.3966 C.3      24        0    0.0000
    147 H          78.3064   40.0444    9.3998 H        24        0    0.0000
    148 H          77.1714   40.4945    8.1320 H        24        0    0.0000
    149 H          79.0317   40.0553    6.4121 H        24        0    0.0000
    150 H          80.0308   39.4406    7.7244 H        24        0    0.0000
    151 C          78.3276   38.1617    7.2415 C.3      25        0    0.0000
    152 C          78.9002   37.3771    6.0560 C.3      25        0    0.0000
    153 H          78.4735   37.5980    8.1713 H        25        0    0.0000
    154 H          77.2453   38.2921    7.1187 H        25        0    0.0000
    155 H          79.3809   38.0632    5.3477 H        25        0    0.0000
    156 H          79.6786   36.6862    6.4029 H        25        0    0.0000
    157 C          77.7991   36.5582    5.2980 C.3      26        0    0.0000
    158 C          78.3482   35.8682    4.0444 C.3      26        0    0.0000
    159 H          77.3780   35.8126    5.9839 H        26        0    0.0000
    160 H          76.9794   37.2348    5.0265 H        26        0    0.0000
    161 H          79.0511   35.0754    4.3288 H        26        0    0.0000
    162 H          77.5323   35.3834    3.4940 H        26        0    0.0000
    163 C          79.0783   36.8710    3.0860 C.3      27        0    0.0000
    164 C          79.6601   36.1748    1.8507 C.3      27        0    0.0000
    165 H          78.3676   37.6486    2.7797 H        27        0    0.0000
    166 H          79.8765   37.3760    3.6440 H        27        0    0.0000
    167 H          79.9848   36.9219    1.1158 H        27        0    0.0000
    168 H          80.5511   35.5983    2.1286 H        27        0    0.0000
    169 C          78.6273   35.2119    1.1698 C.3      28        0    0.0000
    170 C          79.1699   34.6012   -0.1270 C.3      28        0    0.0000
    171 H          78.3644   34.4170    1.8787 H        28        0    0.0000
    172 H          77.7050   35.7698    0.9658 H        28        0    0.0000
    173 H          79.9920   33.9104    0.0977 H        28        0    0.0000
    174 H          78.3881   34.0107   -0.6205 H        28        0    0.0000
    175 C          79.6860   35.6925   -1.1271 C.3      29        0    0.0000
    176 C          80.0661   35.0997   -2.4883 C.3      29        0    0.0000
    177 H          78.9062   36.4539   -1.2529 H        29        0    0.0000
    178 H          80.5517   36.1987   -0.6822 H        29        0    0.0000
    179 H          81.0020   35.5470   -2.8453 H        29        0    0.0000
    180 H          80.2487   34.0223   -2.3916 H        29        0    0.0000
    181 C          78.9527   35.3285   -3.5678 C.3      30        0    0.0000
    182 C          79.4072   34.9070   -4.9695 C.3      30        0    0.0000
    183 H          78.0574   34.7649   -3.2774 H        30        0    0.0000
    184 H          78.6716   36.3889   -3.5666 H        30        0    0.0000
    185 H          80.2521   34.2109   -4.8975 H        30        0    0.0000
    186 H          78.5992   34.3697   -5.4813 H        30        0    0.0000
    187 C          79.8355   36.1321   -5.8487 C.3      31        0    0.0000
    188 C          80.1154   35.7345   -7.3022 C.3      31        0    0.0000
    189 H          79.0417   36.8885   -5.8119 H        31        0    0.0000
    190 H          80.7282   36.5906   -5.4055 H        31        0    0.0000
    191 H          80.3517   36.6254   -7.8971 H        31        0    0.0000
    192 H          80.9952   35.0809   -7.3506 H        31        0    0.0000
    193 C          78.8999   34.9951   -7.9605 C.3      32        0    0.0000
    194 C          79.1999   34.5479   -9.3954 C.3      32        0    0.0000
    195 H          78.6375   34.1271   -7.3430 H        32        0    0.0000
    196 H          78.0306   35.6643   -7.9490 H        32        0    0.0000
    197 H          79.8650   33.6755   -9.3862 H        32        0    0.0000
    198 H          78.2741   34.2331   -9.8927 H        32        0    0.0000
    199 C          79.8683   35.6838  -10.2442 C.3      33        0    0.0000
    200 C          80.1159   35.2557  -11.6949 C.3      33        0    0.0000
    201 H          79.2229   36.5706  -10.2187 H        33        0    0.0000
    202 H          80.8151   35.9695   -9.7695 H        33        0    0.0000
    203 H          80.5995   36.0691  -12.2498 H        33        0    0.0000
    204 H          80.8047   34.4022  -11.7229 H        33        0    0.0000
    205 C          78.7903   34.8595  -12.4319 C.3      34        0    0.0000
    206 C          79.0194   34.5571  -13.9169 C.3      34        0    0.0000
    207 H          78.3559   33.9846  -11.9326 H        34        0    0.0000
    208 H          78.0667   35.6766  -12.3217 H        34        0    0.0000
    209 H          79.6169   33.6436  -14.0269 H        34        0    0.0000
    210 H          78.0602   34.3680  -14.4147 H        34        0    0.0000
    211 C          79.7497   35.7307  -14.6564 C.3      35        0    0.0000
    212 C          80.0947   35.3776  -16.1074 C.3      35        0    0.0000
    213 H          79.1081   36.6201  -14.6280 H        35        0    0.0000
    214 H          80.6629   35.9832  -14.1033 H        35        0    0.0000
    215 H          80.3193   36.2902  -16.6734 H        35        0    0.0000
    216 H          80.9988   34.7570  -16.1387 H        35        0    0.0000
    217 C          78.9307   34.6114  -16.8252 C.3      36        0    0.0000
    218 C          79.2274   34.3614  -18.3080 C.3      36        0    0.0000
    219 H          78.7639   33.6578  -16.3090 H        36        0    0.0000
    220 H          78.0065   35.1928  -16.7193 H        36        0    0.0000
    221 H          80.0535   33.6470  -18.4111 H        36        0    0.0000
    222 H          78.3554   33.9072  -18.7947 H        36        0    0.0000
    223 C          79.6015   35.6797  -19.0694 C.3      37        0    0.0000
    224 C          79.9548   35.4217  -20.5383 C.3      37        0    0.0000
    225 H          78.7582   36.3781  -19.0024 H        37        0    0.0000
    226 H          80.4466   36.1561  -18.5573 H        37        0    0.0000
    227 H          79.9968   36.3705  -21.0873 H        37        0    0.0000
    228 H          80.9522   34.9708  -20.6117 H        37        0    0.0000
    229 C          78.9201   34.4767  -21.2411 C.3      38        0    0.0000
    230 C          79.2496   34.2530  -22.7211 C.3      38        0    0.0000
    231 H          78.9010   33.5165  -20.7107 H        38        0    0.0000
    232 H          77.9182   34.9121  -21.1404 H        38        0    0.0000
    233 H          80.1501   33.6338  -22.8166 H        38        0    0.0000
    234 H          78.4356   33.7025  -23.2087 H        38        0    0.0000
    235 C          79.4792   35.6004  -23.4888 C.3      39        0    0.0000
    236 C          79.8669   35.3750  -24.9544 C.3      39        0    0.0000
    237 H          78.5632   36.2013  -23.4302 H        39        0    0.0000
    238 H          80.2634   36.1706  -22.9756 H        39        0    0.0000
    239 H          79.8052   36.3194  -25.5093 H        39        0    0.0000
    240 H          80.9090   35.0384  -25.0203 H        39        0    0.0000
    241 C          78.9485   34.3158  -25.6558 C.3      40        0    0.0000
    242 C          79.2916   34.1409  -27.1393 C.3      40        0    0.0000
    243 H          79.0490   33.3577  -25.1310 H        40        0    0.0000
    244 H          77.9022   34.6269  -25.5459 H        40        0    0.0000
    245 H          80.2671   33.6500  -27.2444 H        40        0    0.0000
    246 H          78.5555   33.4854  -27.6210 H        40        0    0.0000
    247 C          79.3288   35.5080  -27.9057 C.3      41        0    0.0000
    248 C          79.7515   35.3420  -29.3695 C.3      41        0    0.0000
    249 H          78.3357   35.9711  -27.8511 H        41        0    0.0000
    250 H          80.0207   36.1845  -27.3887 H        41        0    0.0000
    251 H          79.5367   36.2605  -29.9295 H        41        0    0.0000
    252 H          80.8348   35.1808  -29.4322 H        41        0    0.0000
    253 C          79.0210   34.1427  -30.0664 C.3      42        0    0.0000
    254 C          79.3844   34.0247  -31.5507 C.3      42        0    0.0000
    255 H          79.2818   33.2160  -29.5405 H        42        0    0.0000
    256 H          77.9378   34.2748  -29.9537 H        42        0    0.0000
    257 H          80.4299   33.7102  -31.6582 H        42        0    0.0000
    258 H          78.7716   33.2497  -32.0275 H        42        0    0.0000
    259 C          79.1811   35.3747  -32.3213 C.3      43        0    0.0000
    260 C          79.6345   35.2834  -33.7825 C.3      43        0    0.0000
    261 H          78.1211   35.6532  -32.2730 H        43        0    0.0000
    262 H          79.7384   36.1650  -31.8032 H        43        0    0.0000
    263 H          79.2483   36.1390  -34.3503 H        43        0    0.0000
    264 H          80.7288   35.3347  -33.8407 H        43        0    0.0000
    265 C          79.1532   33.9605  -34.4723 C.3      44        0    0.0000
    266 C          79.5278   33.9104  -35.9576 C.3      44        0    0.0000
    267 H          79.5939   33.1058  -33.9442 H        44        0    0.0000
    268 H          78.0656   33.8763  -34.3556 H        44        0    0.0000
    269 H          80.6151   33.8147  -36.0683 H        44        0    0.0000
    270 H          79.0841   33.0242  -36.4278 H        44        0    0.0000
    271 C          79.0513   35.1863  -36.7339 C.3      45        0    0.0000
    272 C          79.5711   35.2171  -38.1754 C.3      45        0    0.0000
    273 H          77.9546   35.2143  -36.7288 H        45        0    0.0000
    274 H          79.3917   36.0775  -36.1921 H        45        0    0.0000
    275 H          78.7636   35.5039  -38.8604 H        45        0    0.0000
    276 H          80.3550   35.9779  -38.2764 H        45        0    0.0000
    277 C          80.1497   33.8323  -38.6280 C.3      46        0    0.0000
    278 C          80.5330   33.8199  -40.1119 C.3      46        0    0.0000
    279 H          81.0258   33.5964  -38.0112 H        46        0    0.0000
    280 H          79.4034   33.0541  -38.4258 H        46        0    0.0000
    281 H          81.5398   33.4025  -40.2369 H        46        0    0.0000
    282 H          79.8502   33.1684  -40.6714 H        46        0    0.0000
    283 C          80.4976   35.2528  -40.7466 C.3      47        0    0.0000
    284 C          80.7056   35.2210  -42.2648 C.3      47        0    0.0000
    285 H          79.5346   35.7213  -40.5086 H        47        0    0.0000
    286 H          81.2728   35.8684  -40.2736 H        47        0    0.0000
    287 H          80.6123   36.2327  -42.6786 H        47        0    0.0000
    288 H          81.7210   34.8776  -42.4982 H        47        0    0.0000
    289 C          79.6768   34.2833  -42.9858 C.3      48        0    0.0000
    290 C          78.9211   35.0040  -44.1077 C.3      48        0    0.0000
    291 H          80.2124   33.4154  -43.3902 H        48        0    0.0000
    292 H          78.9682   33.8978  -42.2423 H        48        0    0.0000
    293 H          78.3855   35.8718  -43.7033 H        48        0    0.0000
    294 H          79.6297   35.3895  -44.8512 H        48        0    0.0000
    295 H          78.2058   34.3520  -44.6090 H        48        0    0.0000
    296 H          69.2798   53.1887  -40.4349 H         0        0    0.0000
@<TRIPOS>BOND
     1     1     2      1
     2     1     3      1
     3     1     4      1
     4     1   296      H
     5     2     5      1
     6     2     6      1
     7     2     7      1
     8     7     8      1
     9     7     9      1
    10     7    10      1
    11     8    11      1
    12     8    12      1
    13     8    13      1
    14    13    14      1
    15    13    15      1
    16    13    16      1
    17    14    17      1
    18    14    18      1
    19    14    19      1
    20    19    20      1
    21    19    21      1
    22    19    22      1
    23    20    23      1
    24    20    24      1
    25    20    25      1
    26    25    26      1
    27    25    27      1
    28    25    28      1
    29    26    29      1
    30    26    30      1
    31    26    31      1
    32    31    32      1
    33    31    33      1
    34    31    34      1
    35    32    35      1
    36    32    36      1
    37    32    37      1
    38    37    38      1
    39    37    39      1
    40    37    40      1
    41    38    41      1
    42    38    42      1
    43    38    43      1
    44    43    44      1
    45    43    45      1
    46    43    46      1
    47    44    47      1
    48    44    48      1
    49    44    49      1
    50    49    50      1
    51    49    51      1
    52    49    52      1
    53    50    53      1
    54    50    54      1
    55    50    55      1
    56    55    56      1
    57    55    57      1
    58    55    58      1
    59    56    59      1
    60    56    60      1
    61    56    61      1
    62    61    62      1
    63    61    63      1
    64    61    64      1
    65    62    65      1
    66    62    66      1
    67    62    67      1
    68    67    68      1
    69    67    69      1
    70    67    70      1
    71    68    71      1
    72    68    72      1
    73    68    73      1
    74    73    74      1
    75    73    75      1
    76    73    76      1
    77    74    77      1
    78    74    78      1
    79    74    79      1
    80    79    80      1
    81    79    81      1
    82    79    82      1
    83    80    83      1
    84    80    84      1
    85    80    85      1
    86    85    86      1
    87    85    87      1
    88    85    88      1
    89    86    89      1
    90    86    90      1
    91    86    91      1
    92    91    92      1
    93    91    93      1
    94    91    94      1
    95    92    95      1
    96    92    96      1
    97    92    97      1
    98    97    98      1
    99    97    99      1
   100    97   100      1
   101    98   101      1
   102    98   102      1
   103    98   103      1
   104   103   104      1
   105   103   105      1
   106   103   106      1
   107   104   107      1
   108   104   108      1
   109   104   109      1
   110   109   110      1
   111   109   111      1
   112   109   112      1
   113   110   113      1
   114   110   114      1
   115   110   115      1
   116   115   116      1
   117   115   117      1
   118   115   118      1
   119   116   119      1
   120   116   120      1
   121   116   121      1
   122   121   122      1
   123   121   123      1
   124   121   124      1
   125   122   125      1
   126   122   126      1
   127   122   127      1
   128   127   128      1
   129   127   129      1
   130   127   130      1
   131   128   131      1
   132   128   132      1
   133   128   133      1
   134   133   134      1
   135   133   135      1
   136   133   136      1
   137   134   137      1
   138   134   138      1
   139   134   139      1
   140   139   140      1
   141   139   141      1
   142   139   142      1
   143   140   143      1
   144   140   144      1
   145   140   145      1
   146   145   146      1
   147   145   147      1
   148   145   148      1
   149   146   149      1
   150   146   150      1
   151   146   151      1
   152   151   152      1
   153   151   153      1
   154   151   154      1
   155   152   155      1
   156   152   156      1
   157   152   157      1
   158   157   158      1
   159   157   159      1
   160   157   160      1
   161   158   161      1
   162   158   162      1
   163   158   163      1
   164   163   164      1
   165   163   165      1
   166   163   166      1
   167   164   167      1
   168   164   168      1
   169   164   169      1
   170   169   170      1
   171   169   171      1
   172   169   172      1
   173   170   173      1
   174   170   174      1
   175   170   175      1
   176   175   176      1
   177   175   177      1
   178   175   178      1
   179   176   179      1
   180   176   180      1
   181   176   181      1
   182   181   182      1
   183   181   183      1
   184   181   184      1
   185   182   185      1
   186   182   186      1
   187   182   187      1
   188   187   188      1
   189   187   189      1
   190   187   190      1
   191   188   191      1
   192   188   192      1
   193   188   193      1
   194   193   194      1
   195   193   195      1
   196   193   196      1
   197   194   197      1
   198   194   198      1
   199   194   199      1
   200   199   200      1
   201   199   201      1
   202   199   202      1
   203   200   203      1
   204   200   204      1
   205   200   205      1
   206   205   206      1
   207   205   207      1
   208   205   208      1
   209   206   209      1
   210   206   210      1
   211   206   211      1
   212   211   212      1
   213   211   213      1
   214   211   214      1
   215   212   215      1
   216   212   216      1
   217   212   217      1
   218   217   218      1
   219   217   219      1
   220   217   220      1
   221   218   221      1
   222   218   222      1
   223   218   223      1
   224   223   224      1
   225   223   225      1
   226   223   226      1
   227   224   227      1
   228   224   228      1
   229   224   229      1
   230   229   230      1
   231   229   231      1
   232   229   232      1
   233   230   233      1
   234   230   234      1
   235   230   235      1
   236   235   236      1
   237   235   237      1
   238   235   238      1
   239   236   239      1
   240   236   240      1
   241   236   241      1
   242   241   242      1
   243   241   243      1
   244   241   244      1
   245   242   245      1
   246   242   246      1
   247   242   247      1
   248   247   248      1
   249   247   249      1
   250   247   250      1
   251   248   251      1
   252   248   252      1
   253   248   253      1
   254   253   254      1
   255   253   255      1
   256   253   256      1
   257   254   257      1
   258   254   258      1
   259   254   259      1
   260   259   260      1
   261   259   261      1
   262   259   262      1
   263   260   263      1
   264   260   264      1
   265   260   265      1
   266   265   266      1
   267   265   267      1
   268   265   268      1
   269   266   269      1
   270   266   270      1
   271   266   271      1
   272   271   272      1
   273   271   273      1
   274   271   274      1
   275   272   275      1
   276   272   276      1
   277   272   277      1
   278   277   278      1
   279   277   279      1
   280   277   280      1
   281   278   281      1
   282   278   282      1
   283   278   283      1
   284   283   284      1
   285   283   285      1
   286   283   286      1
   287   284   287      1
   288   284   288      1
   289   284   289      1
   290   289   290      1
   291   289   291      1
   292   289   292      1
   293   290   293      1
   294   290   294      1
   295   290   295      H
