###
### Created by PolyChef-cpp17 on Thu Feb 27 19:40:30 2025
###

@<TRIPOS>MOLECULE
NO_INFO
176 175 1 0 0
SMALL
USER_CHARGES


@<TRIPOS>ATOM
      1 C         149.2798   87.8287  120.6551 C.3       0        0    0.0000
      2 C         148.4513   86.6775  120.0742 C.3       0        0    0.0000
      3 H         148.8875   88.7902  120.3015 H         0        0    0.0000
      4 H         150.3161   87.7621  120.3014 H         0        0    0.0000
      5 H         148.4079   85.8469  120.7896 H         0        0    0.0000
      6 H         147.4174   87.0046  119.9082 H         0        0    0.0000
      7 C         149.0374   86.1479  118.7201 C.3       1        0    0.0000
      8 C         149.6356   87.2720  117.8670 C.3       1        0    0.0000
      9 H         149.8027   85.3926  118.9374 H         1        0    0.0000
     10 H         148.2402   85.6381  118.1651 H         1        0    0.0000
     11 H         148.9446   88.1231  117.8281 H         1        0    0.0000
     12 H         150.5624   87.6392  118.3250 H         1        0    0.0000
     13 C         149.9459   86.8057  116.4029 C.3       2        0    0.0000
     14 C         149.8833   87.9624  115.3993 C.3       2        0    0.0000
     15 H         150.9405   86.3432  116.3823 H         2        0    0.0000
     16 H         149.2292   86.0242  116.1213 H         2        0    0.0000
     17 H         148.9600   88.5369  115.5447 H         2        0    0.0000
     18 H         150.7160   88.6555  115.5717 H         2        0    0.0000
     19 C         149.9398   87.4641  113.9141 C.3       3        0    0.0000
     20 C         149.8027   88.6140  112.9100 C.3       3        0    0.0000
     21 H         150.8880   86.9361  113.7541 H         3        0    0.0000
     22 H         149.1399   86.7300  113.7567 H         3        0    0.0000
     23 H         148.8593   89.1486  113.0768 H         3        0    0.0000
     24 H         150.6087   89.3428  113.0605 H         3        0    0.0000
     25 C         149.8444   88.1140  111.4249 C.3       4        0    0.0000
     26 C         149.8005   89.2712  110.4209 C.3       4        0    0.0000
     27 H         150.7559   87.5217  111.2766 H         4        0    0.0000
     28 H         148.9979   87.4370  111.2558 H         4        0    0.0000
     29 H         148.8822   89.8552  110.5599 H         4        0    0.0000
     30 H         150.6391   89.9557  110.5990 H         4        0    0.0000
     31 C         149.8621   88.7723  108.9361 C.3       5        0    0.0000
     32 C         148.7739   89.4082  108.0640 C.3       5        0    0.0000
     33 H         150.8539   89.0015  108.5269 H         5        0    0.0000
     34 H         149.7619   87.6799  108.9257 H         5        0    0.0000
     35 H         147.8181   89.4177  108.6025 H         5        0    0.0000
     36 H         149.0260   90.4545  107.8513 H         5        0    0.0000
     37 C         148.5815   88.6487  106.7062 C.3       6        0    0.0000
     38 C         148.8710   89.5419  105.4949 C.3       6        0    0.0000
     39 H         149.2421   87.7729  106.6943 H         6        0    0.0000
     40 H         147.5536   88.2686  106.6563 H         6        0    0.0000
     41 H         147.9540   90.0532  105.1768 H         6        0    0.0000
     42 H         149.5896   90.3247  105.7679 H         6        0    0.0000
     43 C         149.4440   88.7308  104.2820 C.3       7        0    0.0000
     44 C         148.7871   89.1278  102.9554 C.3       7        0    0.0000
     45 H         150.5277   88.8929  104.2285 H         7        0    0.0000
     46 H         149.2946   87.6604  104.4702 H         7        0    0.0000
     47 H         147.6966   89.1614  103.0709 H         7        0    0.0000
     48 H         149.1045   90.1372  102.6657 H         7        0    0.0000
     49 C         149.1420   88.1343  101.7959 C.3       8        0    0.0000
     50 C         148.9409   88.7612  100.4118 C.3       8        0    0.0000
     51 H         150.1834   87.8102  101.9143 H         8        0    0.0000
     52 H         148.5193   87.2367  101.8963 H         8        0    0.0000
     53 H         147.8808   88.9969  100.2561 H         8        0    0.0000
     54 H         149.4876   89.7101  100.3457 H         8        0    0.0000
     55 C         149.4240   87.8181   99.2566 C.3       9        0    0.0000
     56 C         149.1343   88.4030   97.8698 C.3       9        0    0.0000
     57 H         150.5002   87.6398   99.3723 H         9        0    0.0000
     58 H         148.9299   86.8446   99.3649 H         9        0    0.0000
     59 H         148.0602   88.5979   97.7606 H         9        0    0.0000
     60 H         149.6429   89.3682   97.7549 H         9        0    0.0000
     61 C         149.5946   87.4486   96.7145 C.3      10        0    0.0000
     62 C         149.3035   88.0328   95.3278 C.3      10        0    0.0000
     63 H         150.6689   87.2547   96.8230 H        10        0    0.0000
     64 H         149.0869   86.4830   96.8301 H        10        0    0.0000
     65 H         148.2294   88.2284   95.2200 H        10        0    0.0000
     66 H         149.8126   88.9976   95.2116 H        10        0    0.0000
     67 C         149.7615   87.0773   94.1725 C.3      11        0    0.0000
     68 C         149.4858   87.6689   92.7858 C.3      11        0    0.0000
     69 H         150.8329   86.8717   94.2875 H        11        0    0.0000
     70 H         149.2428   86.1167   94.2815 H        11        0    0.0000
     71 H         148.4143   87.8740   92.6705 H        11        0    0.0000
     72 H         150.0039   88.6298   92.6770 H        11        0    0.0000
     73 C         149.9447   86.7138   91.6304 C.3      12        0    0.0000
     74 C         149.6564   87.2994   90.2437 C.3      12        0    0.0000
     75 H         151.0184   86.5169   91.7399 H        12        0    0.0000
     76 H         149.4343   85.7496   91.7451 H        12        0    0.0000
     77 H         148.5814   87.4865   90.1304 H        12        0    0.0000
     78 H         150.1582   88.2687   90.1330 H        12        0    0.0000
     79 C         150.1288   86.3510   89.0884 C.3      13        0    0.0000
     80 C         149.8359   86.9342   87.7016 C.3      13        0    0.0000
     81 H         151.2046   86.1670   89.1995 H        13        0    0.0000
     82 H         149.6299   85.3805   89.2014 H        13        0    0.0000
     83 H         148.7602   87.1196   87.5911 H        13        0    0.0000
     84 H         150.3360   87.9040   87.5881 H        13        0    0.0000
     85 C         150.3063   85.9848   86.5463 C.3      14        0    0.0000
     86 C         150.0151   86.5689   85.1596 C.3      14        0    0.0000
     87 H         151.3817   85.7983   86.6577 H        14        0    0.0000
     88 H         149.8052   85.0154   86.6591 H        14        0    0.0000
     89 H         148.9404   86.7597   85.0499 H        14        0    0.0000
     90 H         150.5201   87.5361   85.0452 H        14        0    0.0000
     91 C         150.4797   85.6165   84.0043 C.3      15        0    0.0000
     92 C         150.1953   86.2039   82.6175 C.3      15        0    0.0000
     93 H         151.5533   85.4213   84.1172 H        15        0    0.0000
     94 H         149.9705   84.6512   84.1156 H        15        0    0.0000
     95 H         149.1739   86.6025   82.5801 H        15        0    0.0000
     96 H         150.8697   87.0465   82.4204 H        15        0    0.0000
     97 C         150.3657   85.1426   81.4765 C.3      16        0    0.0000
     98 C         150.0518   85.7221   80.0927 C.3      16        0    0.0000
     99 H         151.3937   84.7603   81.4998 H        16        0    0.0000
    100 H         149.7076   84.2901   81.6854 H        16        0    0.0000
    101 H         150.1238   86.8164   80.1179 H        16        0    0.0000
    102 H         150.7929   85.3743   79.3624 H        16        0    0.0000
    103 C         148.6216   85.3213   79.5913 C.3      17        0    0.0000
    104 C         148.6190   84.9038   78.1166 C.3      17        0    0.0000
    105 H         148.2451   84.5011   80.2151 H        17        0    0.0000
    106 H         147.9430   86.1697   79.7432 H        17        0    0.0000
    107 H         148.3719   85.7643   77.4825 H        17        0    0.0000
    108 H         149.6205   84.5699   77.8183 H        17        0    0.0000
    109 C         147.5954   83.7523   77.8270 C.3      18        0    0.0000
    110 C         147.5215   83.4021   76.3367 C.3      18        0    0.0000
    111 H         147.8850   82.8675   78.4074 H        18        0    0.0000
    112 H         146.6068   84.0581   78.1910 H        18        0    0.0000
    113 H         147.2514   84.2916   75.7542 H        18        0    0.0000
    114 H         148.5058   83.0771   75.9773 H        18        0    0.0000
    115 C         146.4775   82.2700   76.0435 C.3      19        0    0.0000
    116 C         146.3750   81.9473   74.5487 C.3      19        0    0.0000
    117 H         146.7639   81.3712   76.6036 H        19        0    0.0000
    118 H         145.4991   82.5828   76.4288 H        19        0    0.0000
    119 H         146.0965   82.8480   73.9877 H        19        0    0.0000
    120 H         147.3515   81.6266   74.1653 H        19        0    0.0000
    121 C         145.3227   80.8232   74.2544 C.3      20        0    0.0000
    122 C         145.4463   80.2703   72.8303 C.3      20        0    0.0000
    123 H         145.4549   80.0151   74.9845 H        20        0    0.0000
    124 H         144.3165   81.2303   74.4139 H        20        0    0.0000
    125 H         145.2542   81.0659   72.0999 H        20        0    0.0000
    126 H         146.4698   79.9184   72.6510 H        20        0    0.0000
    127 C         144.4515   79.0884   72.5635 C.3      21        0    0.0000
    128 C         143.6350   79.2944   71.2829 C.3      21        0    0.0000
    129 H         145.0221   78.1536   72.4995 H        21        0    0.0000
    130 H         143.7805   78.9896   73.4257 H        21        0    0.0000
    131 H         143.6332   80.3556   71.0045 H        21        0    0.0000
    132 H         144.0981   78.7510   70.4500 H        21        0    0.0000
    133 C         142.1521   78.8106   71.4396 C.3      22        0    0.0000
    134 C         141.9543   77.3740   70.9434 C.3      22        0    0.0000
    135 H         141.8651   78.8867   72.4957 H        22        0    0.0000
    136 H         141.4969   79.4937   70.8850 H        22        0    0.0000
    137 H         140.9253   77.2369   70.5886 H        22        0    0.0000
    138 H         142.6115   77.1780   70.0871 H        22        0    0.0000
    139 C         142.2493   76.3139   72.0599 C.3      23        0    0.0000
    140 C         141.2056   75.1919   72.0858 C.3      23        0    0.0000
    141 H         143.2491   75.8940   71.8935 H        23        0    0.0000
    142 H         142.2790   76.8226   73.0315 H        23        0    0.0000
    143 H         140.6814   75.1435   71.1234 H        23        0    0.0000
    144 H         141.6993   74.2221   72.2247 H        23        0    0.0000
    145 C         140.1493   75.3892   73.2272 C.3      24        0    0.0000
    146 C         140.0855   74.1856   74.1740 C.3      24        0    0.0000
    147 H         140.4015   76.2970   73.7893 H        24        0    0.0000
    148 H         139.1660   75.5630   72.7729 H        24        0    0.0000
    149 H         139.0755   74.0883   74.5912 H        24        0    0.0000
    150 H         140.2881   73.2604   73.6204 H        24        0    0.0000
    151 C         141.1105   74.3031   75.3542 C.3      25        0    0.0000
    152 C         140.4593   74.0437   76.7172 C.3      25        0    0.0000
    153 H         141.9271   73.5901   75.1857 H        25        0    0.0000
    154 H         141.5580   75.3046   75.3356 H        25        0    0.0000
    155 H         139.5238   73.4857   76.5870 H        25        0    0.0000
    156 H         141.1158   73.4183   77.3348 H        25        0    0.0000
    157 C         140.1520   75.3718   77.4912 C.3      26        0    0.0000
    158 C         140.8812   75.4415   78.8375 C.3      26        0    0.0000
    159 H         140.4414   76.2228   76.8621 H        26        0    0.0000
    160 H         139.0686   75.4484   77.6458 H        26        0    0.0000
    161 H         140.2106   75.8412   79.6082 H        26        0    0.0000
    162 H         141.1690   74.4339   79.1620 H        26        0    0.0000
    163 C         142.1659   76.3374   78.7716 C.3      27        0    0.0000
    164 C         143.3481   75.6106   78.1210 C.3      27        0    0.0000
    165 H         141.9316   77.2511   78.2114 H        27        0    0.0000
    166 H         142.4309   76.6509   79.7890 H        27        0    0.0000
    167 H         144.2582   75.7676   78.7131 H        27        0    0.0000
    168 H         143.1636   74.5293   78.1075 H        27        0    0.0000
    169 C         143.6097   76.0969   76.6538 C.3      28        0    0.0000
    170 C         145.0987   76.3315   76.3764 C.3      28        0    0.0000
    171 H         143.2105   75.3494   75.9571 H        28        0    0.0000
    172 H         143.0448   77.0214   76.4816 H        28        0    0.0000
    173 H         145.4979   77.0790   77.0732 H        28        0    0.0000
    174 H         145.6637   75.4070   76.5486 H        28        0    0.0000
    175 H         145.2806   76.6696   75.3563 H        28        0    0.0000
    176 H         149.2798   87.8287  121.7450 H         0        0    0.0000
@<TRIPOS>BOND
     1     1     2      1
     2     1     3      1
     3     1     4      1
     4     1   176      H
     5     2     5      1
     6     2     6      1
     7     2     7      1
     8     7     8      1
     9     7     9      1
    10     7    10      1
    11     8    11      1
    12     8    12      1
    13     8    13      1
    14    13    14      1
    15    13    15      1
    16    13    16      1
    17    14    17      1
    18    14    18      1
    19    14    19      1
    20    19    20      1
    21    19    21      1
    22    19    22      1
    23    20    23      1
    24    20    24      1
    25    20    25      1
    26    25    26      1
    27    25    27      1
    28    25    28      1
    29    26    29      1
    30    26    30      1
    31    26    31      1
    32    31    32      1
    33    31    33      1
    34    31    34      1
    35    32    35      1
    36    32    36      1
    37    32    37      1
    38    37    38      1
    39    37    39      1
    40    37    40      1
    41    38    41      1
    42    38    42      1
    43    38    43      1
    44    43    44      1
    45    43    45      1
    46    43    46      1
    47    44    47      1
    48    44    48      1
    49    44    49      1
    50    49    50      1
    51    49    51      1
    52    49    52      1
    53    50    53      1
    54    50    54      1
    55    50    55      1
    56    55    56      1
    57    55    57      1
    58    55    58      1
    59    56    59      1
    60    56    60      1
    61    56    61      1
    62    61    62      1
    63    61    63      1
    64    61    64      1
    65    62    65      1
    66    62    66      1
    67    62    67      1
    68    67    68      1
    69    67    69      1
    70    67    70      1
    71    68    71      1
    72    68    72      1
    73    68    73      1
    74    73    74      1
    75    73    75      1
    76    73    76      1
    77    74    77      1
    78    74    78      1
    79    74    79      1
    80    79    80      1
    81    79    81      1
    82    79    82      1
    83    80    83      1
    84    80    84      1
    85    80    85      1
    86    85    86      1
    87    85    87      1
    88    85    88      1
    89    86    89      1
    90    86    90      1
    91    86    91      1
    92    91    92      1
    93    91    93      1
    94    91    94      1
    95    92    95      1
    96    92    96      1
    97    92    97      1
    98    97    98      1
    99    97    99      1
   100    97   100      1
   101    98   101      1
   102    98   102      1
   103    98   103      1
   104   103   104      1
   105   103   105      1
   106   103   106      1
   107   104   107      1
   108   104   108      1
   109   104   109      1
   110   109   110      1
   111   109   111      1
   112   109   112      1
   113   110   113      1
   114   110   114      1
   115   110   115      1
   116   115   116      1
   117   115   117      1
   118   115   118      1
   119   116   119      1
   120   116   120      1
   121   116   121      1
   122   121   122      1
   123   121   123      1
   124   121   124      1
   125   122   125      1
   126   122   126      1
   127   122   127      1
   128   127   128      1
   129   127   129      1
   130   127   130      1
   131   128   131      1
   132   128   132      1
   133   128   133      1
   134   133   134      1
   135   133   135      1
   136   133   136      1
   137   134   137      1
   138   134   138      1
   139   134   139      1
   140   139   140      1
   141   139   141      1
   142   139   142      1
   143   140   143      1
   144   140   144      1
   145   140   145      1
   146   145   146      1
   147   145   147      1
   148   145   148      1
   149   146   149      1
   150   146   150      1
   151   146   151      1
   152   151   152      1
   153   151   153      1
   154   151   154      1
   155   152   155      1
   156   152   156      1
   157   152   157      1
   158   157   158      1
   159   157   159      1
   160   157   160      1
   161   158   161      1
   162   158   162      1
   163   158   163      1
   164   163   164      1
   165   163   165      1
   166   163   166      1
   167   164   167      1
   168   164   168      1
   169   164   169      1
   170   169   170      1
   171   169   171      1
   172   169   172      1
   173   170   173      1
   174   170   174      1
   175   170   175      H
