###
### Created by PolyChef-cpp17 on Thu Feb 27 19:40:30 2025
###

@<TRIPOS>MOLECULE
NO_INFO
146 145 1 0 0
SMALL
USER_CHARGES


@<TRIPOS>ATOM
      1 C          59.2798   70.5087  -39.3449 C.3       0        0    0.0000
      2 C          57.8706   70.3482  -38.7641 C.3       0        0    0.0000
      3 H          59.9271   69.6966  -38.9913 H         0        0    0.0000
      4 H          59.7280   71.4455  -38.9913 H         0        0    0.0000
      5 H          57.3721   71.3240  -38.7112 H         0        0    0.0000
      6 H          57.2611   69.7185  -39.4241 H         0        0    0.0000
      7 C          57.8873   69.7111  -37.3319 C.3       1        0    0.0000
      8 C          59.1651   70.0544  -36.5583 C.3       1        0    0.0000
      9 H          57.0071   70.0614  -36.7787 H         1        0    0.0000
     10 H          57.7865   68.6229  -37.4277 H         1        0    0.0000
     11 H          60.0455   69.8755  -37.1880 H         1        0    0.0000
     12 H          59.1737   71.1206  -36.3004 H         1        0    0.0000
     13 C          59.3064   69.2149  -35.2420 C.3       2        0    0.0000
     14 C          60.2072   69.9012  -34.2092 C.3       2        0    0.0000
     15 H          58.3077   69.0495  -34.8192 H         2        0    0.0000
     16 H          59.7092   68.2262  -35.4946 H         2        0    0.0000
     17 H          61.2610   69.7788  -34.4888 H         2        0    0.0000
     18 H          60.0084   70.9800  -34.1945 H         2        0    0.0000
     19 C          59.9980   69.3291  -32.7648 C.3       3        0    0.0000
     20 C          60.6219   70.2250  -31.6892 C.3       3        0    0.0000
     21 H          58.9223   69.2152  -32.5820 H         3        0    0.0000
     22 H          60.4340   68.3236  -32.7162 H         3        0    0.0000
     23 H          61.7110   70.2620  -31.8158 H         3        0    0.0000
     24 H          60.2569   71.2538  -31.7983 H         3        0    0.0000
     25 C          60.2985   69.7254  -30.2389 C.3       4        0    0.0000
     26 C          60.9005   70.6360  -29.1631 C.3       4        0    0.0000
     27 H          59.2095   69.6701  -30.1186 H         4        0    0.0000
     28 H          60.6805   68.7035  -30.1236 H         4        0    0.0000
     29 H          61.9903   70.6859  -29.2793 H         4        0    0.0000
     30 H          60.5238   71.6594  -29.2826 H         4        0    0.0000
     31 C          60.5691   70.1416  -27.7128 C.3       5        0    0.0000
     32 C          61.1854   71.0427  -26.6370 C.3       5        0    0.0000
     33 H          59.4794   70.1036  -27.5926 H         5        0    0.0000
     34 H          60.9349   69.1138  -27.5974 H         5        0    0.0000
     35 H          62.2750   71.0822  -26.7583 H         5        0    0.0000
     36 H          60.8183   72.0701  -26.7513 H         5        0    0.0000
     37 C          60.8561   70.5469  -25.1868 C.3       6        0    0.0000
     38 C          61.4427   71.4675  -24.1110 C.3       6        0    0.0000
     39 H          59.7668   70.4827  -25.0738 H         6        0    0.0000
     40 H          61.2461   69.5288  -25.0640 H         6        0    0.0000
     41 H          62.5326   71.5279  -24.2210 H         6        0    0.0000
     42 H          61.0565   72.4866  -24.2366 H         6        0    0.0000
     43 C          61.1078   70.9754  -22.6608 C.3       7        0    0.0000
     44 C          62.2218   71.3090  -21.6624 C.3       7        0    0.0000
     45 H          60.1650   71.4357  -22.3401 H         7        0    0.0000
     46 H          60.9370   69.8920  -22.6856 H         7        0    0.0000
     47 H          63.1879   70.9578  -22.0456 H         7        0    0.0000
     48 H          62.3067   72.3963  -21.5429 H         7        0    0.0000
     49 C          61.9716   70.6642  -20.2556 C.3       8        0    0.0000
     50 C          62.0248   71.6977  -19.1251 C.3       8        0    0.0000
     51 H          60.9943   70.1657  -20.2639 H         8        0    0.0000
     52 H          62.7225   69.8825  -20.0863 H         8        0    0.0000
     53 H          63.0668   71.8951  -18.8447 H         8        0    0.0000
     54 H          61.6045   72.6515  -19.4674 H         8        0    0.0000
     55 C          61.2395   71.2271  -17.8526 C.3       9        0    0.0000
     56 C          62.1049   71.2670  -16.5882 C.3       9        0    0.0000
     57 H          60.3573   71.8667  -17.7249 H         9        0    0.0000
     58 H          60.8684   70.2088  -18.0225 H         9        0    0.0000
     59 H          63.1061   70.8745  -16.8052 H         9        0    0.0000
     60 H          62.2382   72.3041  -16.2562 H         9        0    0.0000
     61 C          61.4802   70.4370  -15.4143 C.3      10        0    0.0000
     62 C          61.8196   71.0268  -14.0410 C.3      10        0    0.0000
     63 H          60.3921   70.3982  -15.5485 H        10        0    0.0000
     64 H          61.8427   69.4036  -15.4798 H        10        0    0.0000
     65 H          62.8948   70.9308  -13.8457 H        10        0    0.0000
     66 H          61.5912   72.0997  -14.0256 H        10        0    0.0000
     67 C          61.0309   70.3256  -12.8818 C.3      11        0    0.0000
     68 C          61.5127   70.7735  -11.4975 C.3      11        0    0.0000
     69 H          59.9624   70.5456  -12.9975 H        11        0    0.0000
     70 H          61.1418   69.2391  -12.9854 H        11        0    0.0000
     71 H          62.5896   70.5899  -11.3965 H        11        0    0.0000
     72 H          61.3649   71.8540  -11.3792 H        11        0    0.0000
     73 C          60.7626   70.0309  -10.3384 C.3      12        0    0.0000
     74 C          61.2358   70.4877   -8.9540 C.3      12        0    0.0000
     75 H          59.6850   70.2071  -10.4447 H        12        0    0.0000
     76 H          60.9179   68.9509  -10.4516 H        12        0    0.0000
     77 H          62.3126   70.3074   -8.8462 H        12        0    0.0000
     78 H          61.0846   71.5685   -8.8425 H        12        0    0.0000
     79 C          60.4814   69.7496   -7.7949 C.3      13        0    0.0000
     80 C          60.9525   70.2085   -6.4105 C.3      13        0    0.0000
     81 H          59.4044   69.9281   -7.9040 H        13        0    0.0000
     82 H          60.6344   68.6689   -7.9052 H        13        0    0.0000
     83 H          62.0294   70.0297   -6.3013 H        13        0    0.0000
     84 H          60.7998   71.2892   -6.3003 H        13        0    0.0000
     85 C          60.1977   69.4707   -5.2514 C.3      14        0    0.0000
     86 C          60.6669   69.9316   -3.8670 C.3      14        0    0.0000
     87 H          59.1207   69.6478   -5.3618 H        14        0    0.0000
     88 H          60.3521   68.3901   -5.3604 H        14        0    0.0000
     89 H          61.7447   69.7585   -3.7582 H        14        0    0.0000
     90 H          60.5085   71.0115   -3.7564 H        14        0    0.0000
     91 C          59.9164   69.1895   -2.7079 C.3      15        0    0.0000
     92 C          60.3812   69.6548   -1.3235 C.3      15        0    0.0000
     93 H          58.8382   69.3588   -2.8193 H        15        0    0.0000
     94 H          60.0785   68.1099   -2.8159 H        15        0    0.0000
     95 H          61.4553   69.4664   -1.2044 H        15        0    0.0000
     96 H          60.2382   70.7379   -1.2231 H        15        0    0.0000
     97 C          59.6101   68.9338   -0.1646 C.3      16        0    0.0000
     98 C          59.9672   69.5031    1.2128 C.3      16        0    0.0000
     99 H          58.5321   69.0302   -0.3436 H        16        0    0.0000
    100 H          59.8407   67.8618   -0.1999 H        16        0    0.0000
    101 H          60.9657   69.1623    1.5134 H        16        0    0.0000
    102 H          60.0084   70.5984    1.1680 H        16        0    0.0000
    103 C          58.9361   69.0810    2.3156 C.3      17        0    0.0000
    104 C          59.3290   69.5944    3.7052 C.3      17        0    0.0000
    105 H          57.9460   69.4641    2.0392 H        17        0    0.0000
    106 H          58.8586   67.9867    2.3269 H        17        0    0.0000
    107 H          60.3251   69.2226    3.9758 H        17        0    0.0000
    108 H          59.3929   70.6896    3.6974 H        17        0    0.0000
    109 C          58.3084   69.1557    4.8112 C.3      18        0    0.0000
    110 C          57.8683   70.3289    5.6938 C.3      18        0    0.0000
    111 H          57.4353   68.7014    4.3265 H        18        0    0.0000
    112 H          58.7691   68.3736    5.4273 H        18        0    0.0000
    113 H          58.6676   70.5900    6.3984 H        18        0    0.0000
    114 H          57.6898   71.2179    5.0763 H        18        0    0.0000
    115 C          56.5656   70.0067    6.5042 C.3      19        0    0.0000
    116 C          56.8037   70.0262    8.0181 C.3      19        0    0.0000
    117 H          55.7924   70.7371    6.2356 H        19        0    0.0000
    118 H          56.1910   69.0231    6.1950 H        19        0    0.0000
    119 H          57.8638   69.8453    8.2346 H        19        0    0.0000
    120 H          56.5639   71.0169    8.4239 H        19        0    0.0000
    121 C          55.9441   68.9513    8.7686 C.3      20        0    0.0000
    122 C          55.1425   69.5542    9.9274 C.3      20        0    0.0000
    123 H          55.2658   68.4758    8.0493 H        20        0    0.0000
    124 H          56.6102   68.1635    9.1417 H        20        0    0.0000
    125 H          55.8020   69.7405   10.7841 H        20        0    0.0000
    126 H          54.7274   70.5259    9.6322 H        20        0    0.0000
    127 C          53.9689   68.6218   10.3865 C.3      21        0    0.0000
    128 C          53.8943   68.4901   11.9116 C.3      21        0    0.0000
    129 H          53.0252   69.0234    9.9970 H        21        0    0.0000
    130 H          54.1031   67.6335    9.9296 H        21        0    0.0000
    131 H          54.8986   68.3368   12.3255 H        21        0    0.0000
    132 H          53.5108   69.4192   12.3511 H        21        0    0.0000
    133 C          52.9759   67.3018   12.3611 C.3      22        0    0.0000
    134 C          51.7986   67.7713   13.2228 C.3      22        0    0.0000
    135 H          52.6052   66.7839   11.4678 H        22        0    0.0000
    136 H          53.5829   66.5763   12.9166 H        22        0    0.0000
    137 H          51.6524   67.0850   14.0661 H        22        0    0.0000
    138 H          52.0167   68.7568   13.6528 H        22        0    0.0000
    139 C          50.4632   67.8605   12.4065 C.3      23        0    0.0000
    140 C          49.3772   66.9354   12.9667 C.3      23        0    0.0000
    141 H          50.1127   68.9000   12.4144 H        23        0    0.0000
    142 H          50.6710   67.6060   11.3598 H        23        0    0.0000
    143 H          49.7277   65.8959   12.9588 H        23        0    0.0000
    144 H          49.1694   67.1899   14.0134 H        23        0    0.0000
    145 H          48.4487   66.9974   12.3991 H        23        0    0.0000
    146 H          59.2798   70.5087  -40.4349 H         0        0    0.0000
@<TRIPOS>BOND
     1     1     2      1
     2     1     3      1
     3     1     4      1
     4     1   146      H
     5     2     5      1
     6     2     6      1
     7     2     7      1
     8     7     8      1
     9     7     9      1
    10     7    10      1
    11     8    11      1
    12     8    12      1
    13     8    13      1
    14    13    14      1
    15    13    15      1
    16    13    16      1
    17    14    17      1
    18    14    18      1
    19    14    19      1
    20    19    20      1
    21    19    21      1
    22    19    22      1
    23    20    23      1
    24    20    24      1
    25    20    25      1
    26    25    26      1
    27    25    27      1
    28    25    28      1
    29    26    29      1
    30    26    30      1
    31    26    31      1
    32    31    32      1
    33    31    33      1
    34    31    34      1
    35    32    35      1
    36    32    36      1
    37    32    37      1
    38    37    38      1
    39    37    39      1
    40    37    40      1
    41    38    41      1
    42    38    42      1
    43    38    43      1
    44    43    44      1
    45    43    45      1
    46    43    46      1
    47    44    47      1
    48    44    48      1
    49    44    49      1
    50    49    50      1
    51    49    51      1
    52    49    52      1
    53    50    53      1
    54    50    54      1
    55    50    55      1
    56    55    56      1
    57    55    57      1
    58    55    58      1
    59    56    59      1
    60    56    60      1
    61    56    61      1
    62    61    62      1
    63    61    63      1
    64    61    64      1
    65    62    65      1
    66    62    66      1
    67    62    67      1
    68    67    68      1
    69    67    69      1
    70    67    70      1
    71    68    71      1
    72    68    72      1
    73    68    73      1
    74    73    74      1
    75    73    75      1
    76    73    76      1
    77    74    77      1
    78    74    78      1
    79    74    79      1
    80    79    80      1
    81    79    81      1
    82    79    82      1
    83    80    83      1
    84    80    84      1
    85    80    85      1
    86    85    86      1
    87    85    87      1
    88    85    88      1
    89    86    89      1
    90    86    90      1
    91    86    91      1
    92    91    92      1
    93    91    93      1
    94    91    94      1
    95    92    95      1
    96    92    96      1
    97    92    97      1
    98    97    98      1
    99    97    99      1
   100    97   100      1
   101    98   101      1
   102    98   102      1
   103    98   103      1
   104   103   104      1
   105   103   105      1
   106   103   106      1
   107   104   107      1
   108   104   108      1
   109   104   109      1
   110   109   110      1
   111   109   111      1
   112   109   112      1
   113   110   113      1
   114   110   114      1
   115   110   115      1
   116   115   116      1
   117   115   117      1
   118   115   118      1
   119   116   119      1
   120   116   120      1
   121   116   121      1
   122   121   122      1
   123   121   123      1
   124   121   124      1
   125   122   125      1
   126   122   126      1
   127   122   127      1
   128   127   128      1
   129   127   129      1
   130   127   130      1
   131   128   131      1
   132   128   132      1
   133   128   133      1
   134   133   134      1
   135   133   135      1
   136   133   136      1
   137   134   137      1
   138   134   138      1
   139   134   139      1
   140   139   140      1
   141   139   141      1
   142   139   142      1
   143   140   143      1
   144   140   144      1
   145   140   145      H
