###
### Created by PolyChef-cpp17 on Thu Feb 27 19:40:30 2025
###

@<TRIPOS>MOLECULE
NO_INFO
158 157 1 0 0
SMALL
USER_CHARGES


@<TRIPOS>ATOM
      1 C          49.2798  157.1087  -39.3449 C.3       0        0    0.0000
      2 C          47.8706  156.9482  -38.7641 C.3       0        0    0.0000
      3 H          49.9271  156.2966  -38.9914 H         0        0    0.0000
      4 H          49.7280  158.0455  -38.9913 H         0        0    0.0000
      5 H          47.3717  157.9239  -38.7122 H         0        0    0.0000
      6 H          47.2614  156.3176  -39.4236 H         0        0    0.0000
      7 C          47.8874  156.3125  -37.3312 C.3       1        0    0.0000
      8 C          49.1653  156.6566  -36.5581 C.3       1        0    0.0000
      9 H          47.0072  156.6634  -36.7784 H         1        0    0.0000
     10 H          47.7867  155.2242  -37.4260 H         1        0    0.0000
     11 H          50.0455  156.4791  -37.1883 H         1        0    0.0000
     12 H          49.1729  157.7228  -36.2995 H         1        0    0.0000
     13 C          49.3080  155.8165  -35.2423 C.3       2        0    0.0000
     14 C          50.2080  156.5034  -34.2093 C.3       2        0    0.0000
     15 H          48.3096  155.6494  -34.8195 H         2        0    0.0000
     16 H          49.7123  154.8286  -35.4957 H         2        0    0.0000
     17 H          51.2621  156.3800  -34.4875 H         2        0    0.0000
     18 H          50.0100  157.5824  -34.1961 H         2        0    0.0000
     19 C          49.9966  155.9332  -32.7645 C.3       3        0    0.0000
     20 C          50.6251  156.8269  -31.6896 C.3       3        0    0.0000
     21 H          48.9204  155.8245  -32.5812 H         3        0    0.0000
     22 H          50.4279  154.9257  -32.7153 H         3        0    0.0000
     23 H          51.7142  156.8600  -31.8176 H         3        0    0.0000
     24 H          50.2636  157.8570  -31.7983 H         3        0    0.0000
     25 C          50.3019  156.3284  -30.2389 C.3       4        0    0.0000
     26 C          50.9079  157.2372  -29.1639 C.3       4        0    0.0000
     27 H          49.2128  156.2764  -30.1174 H         4        0    0.0000
     28 H          50.6808  155.3053  -30.1240 H         4        0    0.0000
     29 H          51.9977  157.2833  -29.2810 H         4        0    0.0000
     30 H          50.5346  158.2618  -29.2833 H         4        0    0.0000
     31 C          50.5760  156.7444  -27.7132 C.3       5        0    0.0000
     32 C          51.1905  157.6475  -26.6381 C.3       5        0    0.0000
     33 H          49.4862  156.7054  -27.5937 H         5        0    0.0000
     34 H          50.9427  155.7171  -27.5961 H         5        0    0.0000
     35 H          52.2802  157.6882  -26.7589 H         5        0    0.0000
     36 H          50.8222  158.6744  -26.7539 H         5        0    0.0000
     37 C          50.8611  157.1530  -25.1875 C.3       6        0    0.0000
     38 C          51.4465  158.0754  -24.1125 C.3       6        0    0.0000
     39 H          49.7718  157.0881  -25.0749 H         6        0    0.0000
     40 H          51.2519  156.1355  -25.0635 H         6        0    0.0000
     41 H          52.5363  158.1367  -24.2222 H         6        0    0.0000
     42 H          51.0593  159.0940  -24.2393 H         6        0    0.0000
     43 C          51.1116  157.5845  -22.6619 C.3       7        0    0.0000
     44 C          52.2360  157.8976  -21.6686 C.3       7        0    0.0000
     45 H          50.1779  158.0587  -22.3348 H         7        0    0.0000
     46 H          50.9235  156.5040  -22.6888 H         7        0    0.0000
     47 H          53.1957  157.5397  -22.0617 H         7        0    0.0000
     48 H          52.3332  158.9828  -21.5402 H         7        0    0.0000
     49 C          51.9890  157.2430  -20.2658 C.3       8        0    0.0000
     50 C          52.0520  158.2674  -19.1275 C.3       8        0    0.0000
     51 H          51.0093  156.7492  -20.2736 H         8        0    0.0000
     52 H          52.7369  156.4565  -20.1059 H         8        0    0.0000
     53 H          53.0958  158.4520  -18.8449 H         8        0    0.0000
     54 H          51.6419  159.2281  -19.4629 H         8        0    0.0000
     55 C          51.2609  157.7955  -17.8590 C.3       9        0    0.0000
     56 C          52.1180  157.8426  -16.5893 C.3       9        0    0.0000
     57 H          50.3747  158.4307  -17.7384 H         9        0    0.0000
     58 H          50.8963  156.7749  -18.0291 H         9        0    0.0000
     59 H          53.1192  157.4448  -16.7962 H         9        0    0.0000
     60 H          52.2528  158.8819  -16.2647 H         9        0    0.0000
     61 C          51.4824  157.0243  -15.4128 C.3      10        0    0.0000
     62 C          51.8320  157.6120  -14.0412 C.3      10        0    0.0000
     63 H          50.3937  157.0014  -15.5458 H        10        0    0.0000
     64 H          51.8295  155.9856  -15.4766 H        10        0    0.0000
     65 H          52.9070  157.5065  -13.8497 H        10        0    0.0000
     66 H          51.6132  158.6870  -14.0257 H        10        0    0.0000
     67 C          51.0412  156.9187  -12.8787 C.3      11        0    0.0000
     68 C          51.5281  157.3674  -11.4965 C.3      11        0    0.0000
     69 H          49.9738  157.1447  -12.9932 H        11        0    0.0000
     70 H          51.1455  155.8312  -12.9795 H        11        0    0.0000
     71 H          52.6042  157.1785  -11.3972 H        11        0    0.0000
     72 H          51.3862  158.4491  -11.3806 H        11        0    0.0000
     73 C          50.7765  156.6317  -10.3341 C.3      12        0    0.0000
     74 C          51.2517  157.0926   -8.9518 C.3      12        0    0.0000
     75 H          49.6994  156.8105  -10.4405 H        12        0    0.0000
     76 H          50.9287  155.5507  -10.4430 H        12        0    0.0000
     77 H          52.3282  156.9106   -8.8440 H        12        0    0.0000
     78 H          51.1028  158.1742   -8.8442 H        12        0    0.0000
     79 C          50.4966  156.3605   -7.7893 C.3      13        0    0.0000
     80 C          50.9722  156.8210   -6.4070 C.3      13        0    0.0000
     81 H          49.4202  156.5430   -7.8968 H        13        0    0.0000
     82 H          50.6451  155.2789   -7.8972 H        13        0    0.0000
     83 H          52.0484  156.6373   -6.2991 H        13        0    0.0000
     84 H          50.8249  157.9028   -6.2996 H        13        0    0.0000
     85 C          50.2159  156.0902   -5.2446 C.3      14        0    0.0000
     86 C          50.6934  156.5487   -3.8623 C.3      14        0    0.0000
     87 H          49.1399  156.2755   -5.3514 H        14        0    0.0000
     88 H          50.3615  155.0083   -5.3531 H        14        0    0.0000
     89 H          51.7737  156.3848   -3.7641 H        14        0    0.0000
     90 H          50.5264  157.6266   -3.7451 H        14        0    0.0000
     91 C          49.9602  155.7944   -2.7000 C.3      15        0    0.0000
     92 C          50.4870  156.2020   -1.3197 C.3      15        0    0.0000
     93 H          48.8847  156.0003   -2.7680 H        15        0    0.0000
     94 H          50.0840  154.7142   -2.8460 H        15        0    0.0000
     95 H          51.5544  155.9622   -1.2386 H        15        0    0.0000
     96 H          50.3971  157.2874   -1.1882 H        15        0    0.0000
     97 C          49.7186  155.4867   -0.1555 C.3      16        0    0.0000
     98 C          50.4777  155.5616    1.1738 C.3      16        0    0.0000
     99 H          48.7285  155.9474   -0.0498 H        16        0    0.0000
    100 H          49.5504  154.4390   -0.4341 H        16        0    0.0000
    101 H          50.6520  156.6092    1.4489 H        16        0    0.0000
    102 H          49.8742  155.1211    1.9770 H        16        0    0.0000
    103 C          51.8570  154.8191    1.1129 C.3      17        0    0.0000
    104 C          52.0632  153.8781    2.3049 C.3      17        0    0.0000
    105 H          51.9136  154.2546    0.1739 H        17        0    0.0000
    106 H          52.6597  155.5662    1.0802 H        17        0    0.0000
    107 H          52.6591  154.3769    3.0793 H        17        0    0.0000
    108 H          51.0965  153.6316    2.7612 H        17        0    0.0000
    109 C          52.7819  152.5470    1.8937 C.3      18        0    0.0000
    110 C          52.2702  151.3409    2.6891 C.3      18        0    0.0000
    111 H          52.6309  152.3808    0.8198 H        18        0    0.0000
    112 H          53.8618  152.6667    2.0452 H        18        0    0.0000
    113 H          52.8153  150.4362    2.3927 H        18        0    0.0000
    114 H          52.4616  151.4876    3.7593 H        18        0    0.0000
    115 C          50.7359  151.0981    2.4788 C.3      19        0    0.0000
    116 C          50.2164  149.9156    3.3040 C.3      19        0    0.0000
    117 H          50.1929  152.0125    2.7486 H        19        0    0.0000
    118 H          50.5484  150.9236    1.4120 H        19        0    0.0000
    119 H          49.5294  149.3091    2.7010 H        19        0    0.0000
    120 H          51.0492  149.2602    3.5876 H        19        0    0.0000
    121 C          49.4729  150.3793    4.6039 C.3      20        0    0.0000
    122 C          48.5901  149.2740    5.1937 C.3      20        0    0.0000
    123 H          50.2183  150.6997    5.3423 H        20        0    0.0000
    124 H          48.8643  151.2610    4.3677 H        20        0    0.0000
    125 H          48.1361  148.6847    4.3874 H        20        0    0.0000
    126 H          49.2006  148.5806    5.7854 H        20        0    0.0000
    127 C          47.4500  149.8469    6.1045 C.3      21        0    0.0000
    128 C          46.5825  148.7403    6.7143 C.3      21        0    0.0000
    129 H          47.9030  150.4512    6.9001 H        21        0    0.0000
    130 H          46.8286  150.5262    5.5079 H        21        0    0.0000
    131 H          46.0896  148.1674    5.9191 H        21        0    0.0000
    132 H          47.2108  148.0326    7.2693 H        21        0    0.0000
    133 C          45.4870  149.3089    7.6808 C.3      22        0    0.0000
    134 C          44.6209  148.2021    8.2924 C.3      22        0    0.0000
    135 H          45.9799  149.8830    8.4752 H        22        0    0.0000
    136 H          44.8578  150.0154    7.1255 H        22        0    0.0000
    137 H          45.1991  147.6397    9.0361 H        22        0    0.0000
    138 H          43.7679  148.6422    8.8236 H        22        0    0.0000
    139 C          44.0820  147.2035    7.2108 C.3      23        0    0.0000
    140 C          43.4971  145.9316    7.8347 C.3      23        0    0.0000
    141 H          43.3190  147.7123    6.6087 H        23        0    0.0000
    142 H          44.9013  146.9453    6.5284 H        23        0    0.0000
    143 H          42.5905  145.6306    7.2953 H        23        0    0.0000
    144 H          44.2102  145.1034    7.7390 H        23        0    0.0000
    145 C          43.1437  146.1216    9.3501 C.3      24        0    0.0000
    146 C          42.6058  144.8353    9.9868 C.3      24        0    0.0000
    147 H          44.0416  146.4582    9.8831 H        24        0    0.0000
    148 H          42.4027  146.9253    9.4424 H        24        0    0.0000
    149 H          42.3179  145.0232   11.0286 H        24        0    0.0000
    150 H          41.6991  144.5073    9.4636 H        24        0    0.0000
    151 C          43.6564  143.6723    9.9549 C.3      25        0    0.0000
    152 C          43.8158  142.9959   11.3209 C.3      25        0    0.0000
    153 H          43.3453  142.9353    9.2042 H        25        0    0.0000
    154 H          44.6202  144.0755    9.6200 H        25        0    0.0000
    155 H          44.1270  143.7329   12.0716 H        25        0    0.0000
    156 H          42.8521  142.5927   11.6558 H        25        0    0.0000
    157 H          44.5463  142.1872   11.2987 H        25        0    0.0000
    158 H          49.2798  157.1087  -40.4349 H         0        0    0.0000
@<TRIPOS>BOND
     1     1     2      1
     2     1     3      1
     3     1     4      1
     4     1   158      H
     5     2     5      1
     6     2     6      1
     7     2     7      1
     8     7     8      1
     9     7     9      1
    10     7    10      1
    11     8    11      1
    12     8    12      1
    13     8    13      1
    14    13    14      1
    15    13    15      1
    16    13    16      1
    17    14    17      1
    18    14    18      1
    19    14    19      1
    20    19    20      1
    21    19    21      1
    22    19    22      1
    23    20    23      1
    24    20    24      1
    25    20    25      1
    26    25    26      1
    27    25    27      1
    28    25    28      1
    29    26    29      1
    30    26    30      1
    31    26    31      1
    32    31    32      1
    33    31    33      1
    34    31    34      1
    35    32    35      1
    36    32    36      1
    37    32    37      1
    38    37    38      1
    39    37    39      1
    40    37    40      1
    41    38    41      1
    42    38    42      1
    43    38    43      1
    44    43    44      1
    45    43    45      1
    46    43    46      1
    47    44    47      1
    48    44    48      1
    49    44    49      1
    50    49    50      1
    51    49    51      1
    52    49    52      1
    53    50    53      1
    54    50    54      1
    55    50    55      1
    56    55    56      1
    57    55    57      1
    58    55    58      1
    59    56    59      1
    60    56    60      1
    61    56    61      1
    62    61    62      1
    63    61    63      1
    64    61    64      1
    65    62    65      1
    66    62    66      1
    67    62    67      1
    68    67    68      1
    69    67    69      1
    70    67    70      1
    71    68    71      1
    72    68    72      1
    73    68    73      1
    74    73    74      1
    75    73    75      1
    76    73    76      1
    77    74    77      1
    78    74    78      1
    79    74    79      1
    80    79    80      1
    81    79    81      1
    82    79    82      1
    83    80    83      1
    84    80    84      1
    85    80    85      1
    86    85    86      1
    87    85    87      1
    88    85    88      1
    89    86    89      1
    90    86    90      1
    91    86    91      1
    92    91    92      1
    93    91    93      1
    94    91    94      1
    95    92    95      1
    96    92    96      1
    97    92    97      1
    98    97    98      1
    99    97    99      1
   100    97   100      1
   101    98   101      1
   102    98   102      1
   103    98   103      1
   104   103   104      1
   105   103   105      1
   106   103   106      1
   107   104   107      1
   108   104   108      1
   109   104   109      1
   110   109   110      1
   111   109   111      1
   112   109   112      1
   113   110   113      1
   114   110   114      1
   115   110   115      1
   116   115   116      1
   117   115   117      1
   118   115   118      1
   119   116   119      1
   120   116   120      1
   121   116   121      1
   122   121   122      1
   123   121   123      1
   124   121   124      1
   125   122   125      1
   126   122   126      1
   127   122   127      1
   128   127   128      1
   129   127   129      1
   130   127   130      1
   131   128   131      1
   132   128   132      1
   133   128   133      1
   134   133   134      1
   135   133   135      1
   136   133   136      1
   137   134   137      1
   138   134   138      1
   139   134   139      1
   140   139   140      1
   141   139   141      1
   142   139   142      1
   143   140   143      1
   144   140   144      1
   145   140   145      1
   146   145   146      1
   147   145   147      1
   148   145   148      1
   149   146   149      1
   150   146   150      1
   151   146   151      1
   152   151   152      1
   153   151   153      1
   154   151   154      1
   155   152   155      1
   156   152   156      1
   157   152   157      H
