###
### Created by PolyChef-cpp17 on Thu Feb 27 19:40:28 2025
###

@<TRIPOS>MOLECULE
NO_INFO
356 355 1 0 0
SMALL
USER_CHARGES


@<TRIPOS>ATOM
      1 C          99.2798  105.1487  -39.3449 C.3       0        0    0.0000
      2 C          97.8706  104.9882  -38.7641 C.3       0        0    0.0000
      3 H          99.9271  104.3366  -38.9913 H         0        0    0.0000
      4 H          99.7280  106.0855  -38.9913 H         0        0    0.0000
      5 H          97.3722  105.9641  -38.7110 H         0        0    0.0000
      6 H          97.2611  104.3587  -39.4242 H         0        0    0.0000
      7 C          97.8873  104.3508  -37.3320 C.3       1        0    0.0000
      8 C          99.1651  104.6941  -36.5583 C.3       1        0    0.0000
      9 H          97.0071  104.7011  -36.7788 H         1        0    0.0000
     10 H          97.7866  103.2627  -37.4280 H         1        0    0.0000
     11 H         100.0454  104.5170  -37.1885 H         1        0    0.0000
     12 H          99.1728  105.7600  -36.2987 H         1        0    0.0000
     13 C          99.3075  103.8527  -35.2433 C.3       2        0    0.0000
     14 C         100.2076  104.5386  -34.2096 C.3       2        0    0.0000
     15 H          98.3091  103.6854  -34.8207 H         2        0    0.0000
     16 H          99.7116  102.8650  -35.4975 H         2        0    0.0000
     17 H         101.2616  104.4143  -34.4872 H         2        0    0.0000
     18 H         100.0104  105.6177  -34.1961 H         2        0    0.0000
     19 C          99.9949  103.9680  -32.7650 C.3       3        0    0.0000
     20 C         100.6228  104.8612  -31.6895 C.3       3        0    0.0000
     21 H          98.9185  103.8596  -32.5826 H         3        0    0.0000
     22 H         100.4258  102.9603  -32.7158 H         3        0    0.0000
     23 H         101.7121  104.8935  -31.8162 H         3        0    0.0000
     24 H         100.2623  105.8916  -31.7986 H         3        0    0.0000
     25 C         100.2974  104.3630  -30.2391 C.3       4        0    0.0000
     26 C         100.9054  105.2698  -29.1634 C.3       4        0    0.0000
     27 H          99.2081  104.3140  -30.1182 H         4        0    0.0000
     28 H         100.6735  103.3388  -30.1244 H         4        0    0.0000
     29 H         101.9952  105.3143  -29.2810 H         4        0    0.0000
     30 H         100.5336  106.2951  -29.2816 H         4        0    0.0000
     31 C         100.5734  104.7759  -27.7131 C.3       5        0    0.0000
     32 C         101.1905  105.6765  -26.6374 C.3       5        0    0.0000
     33 H          99.4836  104.7390  -27.5929 H         5        0    0.0000
     34 H         100.9381  103.7477  -27.5975 H         5        0    0.0000
     35 H         102.2803  105.7136  -26.7576 H         5        0    0.0000
     36 H         100.8256  106.7047  -26.7528 H         5        0    0.0000
     37 C         100.8587  105.1825  -25.1870 C.3       6        0    0.0000
     38 C         101.4551  106.0970  -24.1113 C.3       6        0    0.0000
     39 H          99.7690  105.1281  -25.0726 H         6        0    0.0000
     40 H         101.2396  104.1609  -25.0657 H         6        0    0.0000
     41 H         102.5451  106.1491  -24.2240 H         6        0    0.0000
     42 H         101.0764  107.1192  -24.2344 H         6        0    0.0000
     43 C         101.1200  105.6052  -22.6610 C.3       7        0    0.0000
     44 C         102.2163  105.9732  -21.6551 C.3       7        0    0.0000
     45 H         100.1630  106.0432  -22.3514 H         7        0    0.0000
     46 H         100.9770  104.5177  -22.6806 H         7        0    0.0000
     47 H         103.1933  105.6367  -22.0237 H         7        0    0.0000
     48 H         102.2782  107.0632  -21.5482 H         7        0    0.0000
     49 C         101.9637  105.3405  -20.2432 C.3       8        0    0.0000
     50 C         101.9937  106.3871  -19.1240 C.3       8        0    0.0000
     51 H         100.9934  104.8286  -20.2536 H         8        0    0.0000
     52 H         102.7239  104.5712  -20.0594 H         8        0    0.0000
     53 H         103.0310  106.6072  -18.8425 H         8        0    0.0000
     54 H         101.5568  107.3291  -19.4780 H         8        0    0.0000
     55 C         101.2133  105.9158  -17.8488 C.3       9        0    0.0000
     56 C         102.0858  105.9473  -16.5891 C.3       9        0    0.0000
     57 H         100.3348  106.5590  -17.7140 H         9        0    0.0000
     58 H         100.8366  104.8998  -18.0201 H         9        0    0.0000
     59 H         103.0877  105.5622  -16.8157 H         9        0    0.0000
     60 H         102.2158  106.9817  -16.2473 H         9        0    0.0000
     61 C         101.4721  105.1023  -15.4200 C.3      10        0    0.0000
     62 C         101.8047  105.6878  -14.0433 C.3      10        0    0.0000
     63 H         100.3845  105.0507  -15.5541 H        10        0    0.0000
     64 H         101.8475  104.0740  -15.4921 H        10        0    0.0000
     65 H         102.8808  105.6014  -13.8477 H        10        0    0.0000
     66 H         101.5657  106.7583  -14.0220 H        10        0    0.0000
     67 C         101.0223  104.9724  -12.8885 C.3      11        0    0.0000
     68 C         101.4896  105.4272  -11.5015 C.3      11        0    0.0000
     69 H          99.9508  105.1744  -13.0094 H        11        0    0.0000
     70 H         101.1521  103.8880  -12.9924 H        11        0    0.0000
     71 H         102.5690  105.2625  -11.3956 H        11        0    0.0000
     72 H         101.3222  106.5049  -11.3828 H        11        0    0.0000
     73 C         100.7472  104.6703  -10.3468 C.3      12        0    0.0000
     74 C         101.2037  105.1358   -8.9597 C.3      12        0    0.0000
     75 H          99.6671  104.8258  -10.4591 H        12        0    0.0000
     76 H         100.9238  103.5934  -10.4591 H        12        0    0.0000
     77 H         102.2833  104.9777   -8.8463 H        12        0    0.0000
     78 H         101.0297  106.2133   -8.8484 H        12        0    0.0000
     79 C         100.4585  104.3817   -7.8049 C.3      13        0    0.0000
     80 C         100.9125  104.8496   -6.4178 C.3      13        0    0.0000
     81 H          99.3787  104.5378   -7.9198 H        13        0    0.0000
     82 H         100.6345  103.3045   -7.9148 H        13        0    0.0000
     83 H         101.9917  104.6901   -6.3016 H        13        0    0.0000
     84 H         100.7399  105.9276   -6.3093 H        13        0    0.0000
     85 C         100.1636  104.0992   -5.2631 C.3      14        0    0.0000
     86 C         100.6050  104.5794   -3.8762 C.3      14        0    0.0000
     87 H          99.0837  104.2482   -5.3866 H        14        0    0.0000
     88 H         100.3466  103.0223   -5.3642 H        14        0    0.0000
     89 H         101.6827  104.4192   -3.7480 H        14        0    0.0000
     90 H         100.4333  105.6587   -3.7795 H        14        0    0.0000
     91 C          99.8436  103.8412   -2.7217 C.3      15        0    0.0000
     92 C         100.3088  104.2975   -1.3344 C.3      15        0    0.0000
     93 H          98.7675  104.0218   -2.8358 H        15        0    0.0000
     94 H          99.9952  102.7604   -2.8327 H        15        0    0.0000
     95 H         101.3989  104.2043   -1.2538 H        15        0    0.0000
     96 H         100.0717  105.3586   -1.1883 H        15        0    0.0000
     97 C          99.6441  103.4679   -0.1823 C.3      16        0    0.0000
     98 C         100.1655  103.8733    1.2007 C.3      16        0    0.0000
     99 H          98.5567  103.6053   -0.2296 H        16        0    0.0000
    100 H          99.8349  102.4020   -0.3586 H        16        0    0.0000
    101 H         101.2614  103.9219    1.1902 H        16        0    0.0000
    102 H          99.8080  104.8782    1.4578 H        16        0    0.0000
    103 C          99.7147  102.8746    2.3218 C.3      17        0    0.0000
    104 C         100.2809  103.2496    3.6958 C.3      17        0    0.0000
    105 H          98.6185  102.8561    2.3590 H        17        0    0.0000
    106 H         100.0377  101.8633    2.0451 H        17        0    0.0000
    107 H         101.2636  103.7237    3.5810 H        17        0    0.0000
    108 H          99.6303  103.9868    4.1823 H        17        0    0.0000
    109 C         100.4273  102.0051    4.6378 C.3      18        0    0.0000
    110 C         101.0554  102.3691    5.9877 C.3      18        0    0.0000
    111 H          99.4366  101.5597    4.7918 H        18        0    0.0000
    112 H         101.0379  101.2477    4.1308 H        18        0    0.0000
    113 H         101.8591  103.1017    5.8433 H        18        0    0.0000
    114 H         100.3078  102.8451    6.6343 H        18        0    0.0000
    115 C         101.6399  101.1170    6.7279 C.3      19        0    0.0000
    116 C         102.3531  101.4932    8.0313 C.3      19        0    0.0000
    117 H         100.8225  100.4153    6.9354 H        19        0    0.0000
    118 H         102.3350  100.6006    6.0543 H        19        0    0.0000
    119 H         103.1503  102.2189    7.8279 H        19        0    0.0000
    120 H         101.6500  101.9817    8.7173 H        19        0    0.0000
    121 C         102.9757  100.2465    8.7491 C.3      20        0    0.0000
    122 C         103.0679  100.4362   10.2672 C.3      20        0    0.0000
    123 H         102.3669   99.3640    8.5167 H        20        0    0.0000
    124 H         103.9731  100.0598    8.3321 H        20        0    0.0000
    125 H         103.8298  101.1884   10.5067 H        20        0    0.0000
    126 H         102.1158  100.8169   10.6572 H        20        0    0.0000
    127 C         103.4223   99.1032   11.0121 C.3      21        0    0.0000
    128 C         102.7453   99.0067   12.3838 C.3      21        0    0.0000
    129 H         103.1211   98.2560   10.3835 H        21        0    0.0000
    130 H         104.5117   99.0401   11.1250 H        21        0    0.0000
    131 H         103.1438   99.7776   13.0550 H        21        0    0.0000
    132 H         101.6696   99.1989   12.2867 H        21        0    0.0000
    133 C         102.9497   97.6022   13.0496 C.3      22        0    0.0000
    134 C         103.5363   97.7086   14.4616 C.3      22        0    0.0000
    135 H         101.9842   97.0823   13.0816 H        22        0    0.0000
    136 H         103.6101   97.0014   12.4121 H        22        0    0.0000
    137 H         104.1897   98.5870   14.5322 H        22        0    0.0000
    138 H         102.7319   97.8547   15.1931 H        22        0    0.0000
    139 C         104.3576   96.4345   14.8612 C.3      23        0    0.0000
    140 C         105.4490   96.7464   15.8911 C.3      23        0    0.0000
    141 H         103.6682   95.6803   15.2604 H        23        0    0.0000
    142 H         104.8056   96.0046   13.9568 H        23        0    0.0000
    143 H         105.8355   97.7610   15.7340 H        23        0    0.0000
    144 H         105.0282   96.7229   16.9040 H        23        0    0.0000
    145 C         106.6432   95.7336   15.8164 C.3      24        0    0.0000
    146 C         107.8198   96.1566   16.7027 C.3      24        0    0.0000
    147 H         106.2843   94.7411   16.1159 H        24        0    0.0000
    148 H         106.9700   95.6486   14.7726 H        24        0    0.0000
    149 H         107.4869   96.2680   17.7421 H        24        0    0.0000
    150 H         108.5914   95.3767   16.7010 H        24        0    0.0000
    151 C         108.4640   97.5057   16.2311 C.3      25        0    0.0000
    152 C         109.4478   98.0711   17.2614 C.3      25        0    0.0000
    153 H         108.9753   97.3382   15.2751 H        25        0    0.0000
    154 H         107.6639   98.2309   16.0376 H        25        0    0.0000
    155 H         108.9976   98.0515   18.2616 H        25        0    0.0000
    156 H         110.3461   97.4431   17.3078 H        25        0    0.0000
    157 C         109.8762   99.5419   16.9289 C.3      26        0    0.0000
    158 C         109.8980  100.4360   18.1736 C.3      26        0    0.0000
    159 H         110.8684   99.5241   16.4612 H        26        0    0.0000
    160 H         109.1838   99.9520   16.1833 H        26        0    0.0000
    161 H         109.0241  100.2263   18.8027 H        26        0    0.0000
    162 H         110.7841  100.2136   18.7810 H        26        0    0.0000
    163 C         109.9046  101.9608   17.8097 C.3      27        0    0.0000
    164 C         111.1790  102.6662   18.2865 C.3      27        0    0.0000
    165 H         109.8010  102.0654   16.7226 H        27        0    0.0000
    166 H         109.0223  102.4350   18.2573 H        27        0    0.0000
    167 H         110.9976  103.1611   19.2486 H        27        0    0.0000
    168 H         111.9753  101.9307   18.4557 H        27        0    0.0000
    169 C         111.6876  103.7338   17.2573 C.3      28        0    0.0000
    170 C         111.1388  105.1338   17.5535 C.3      28        0    0.0000
    171 H         112.7844  103.7481   17.2755 H        28        0    0.0000
    172 H         111.3934  103.4202   16.2480 H        28        0    0.0000
    173 H         110.8071  105.1947   18.5974 H        28        0    0.0000
    174 H         111.9314  105.8823   17.4306 H        28        0    0.0000
    175 C         109.9381  105.5112   16.6190 C.3      29        0    0.0000
    176 C         110.2037  106.7922   15.8206 C.3      29        0    0.0000
    177 H         109.7456  104.6750   15.9354 H        29        0    0.0000
    178 H         109.0364  105.6304   17.2325 H        29        0    0.0000
    179 H         109.3048  107.4209   15.8082 H        29        0    0.0000
    180 H         110.9929  107.3805   16.3050 H        29        0    0.0000
    181 C         110.6316  106.4931   14.3425 C.3      30        0    0.0000
    182 C         109.8442  107.3309   13.3290 C.3      30        0    0.0000
    183 H         111.7060  106.6892   14.2388 H        30        0    0.0000
    184 H         110.4856  105.4245   14.1415 H        30        0    0.0000
    185 H         108.8258  107.5070   13.6970 H        30        0    0.0000
    186 H         110.3116  108.3164   13.2116 H        30        0    0.0000
    187 C         109.7614  106.6404   11.9241 C.3      31        0    0.0000
    188 C         109.4684  107.6415   10.8012 C.3      31        0    0.0000
    189 H         110.7083  106.1222   11.7284 H        31        0    0.0000
    190 H         108.9810  105.8699   11.9542 H        31        0    0.0000
    191 H         108.3897  107.6818   10.6052 H        31        0    0.0000
    192 H         109.7706  108.6504   11.1084 H        31        0    0.0000
    193 C         110.2105  107.2750    9.4699 C.3      32        0    0.0000
    194 C         110.2896  108.4619    8.5033 C.3      32        0    0.0000
    195 H         111.2197  106.9206    9.7137 H        32        0    0.0000
    196 H         109.6885  106.4360    8.9934 H        32        0    0.0000
    197 H         110.0795  108.1279    7.4797 H        32        0    0.0000
    198 H         109.5228  109.2046    8.7561 H        32        0    0.0000
    199 C         111.6945  109.1570    8.5297 C.3      33        0    0.0000
    200 C         111.8658  110.1640    7.3871 C.3      33        0    0.0000
    201 H         111.8222  109.6596    9.4964 H        33        0    0.0000
    202 H         112.4720  108.3852    8.4707 H        33        0    0.0000
    203 H         111.2419  109.8734    6.5328 H        33        0    0.0000
    204 H         111.5220  111.1560    7.7053 H        33        0    0.0000
    205 C         113.3552  110.2742    6.9107 C.3      34        0    0.0000
    206 C         113.4664  110.7403    5.4548 C.3      34        0    0.0000
    207 H         113.8869  110.9711    7.5704 H        34        0    0.0000
    208 H         113.8381  109.2965    7.0305 H        34        0    0.0000
    209 H         112.5510  110.4843    4.9070 H        34        0    0.0000
    210 H         113.5618  111.8325    5.4158 H        34        0    0.0000
    211 C         114.6925  110.0993    4.7178 C.3      35        0    0.0000
    212 C         114.3628  109.7103    3.2724 C.3      35        0    0.0000
    213 H         115.5270  110.8112    4.7347 H        35        0    0.0000
    214 H         115.0205  109.2159    5.2796 H        35        0    0.0000
    215 H         113.3092  109.4151    3.1933 H        35        0    0.0000
    216 H         114.4986  110.5742    2.6100 H        35        0    0.0000
    217 C         115.2579  108.5317    2.7555 C.3      36        0    0.0000
    218 C         116.0551  108.9136    1.5035 C.3      36        0    0.0000
    219 H         115.9412  108.2281    3.5584 H        36        0    0.0000
    220 H         114.6166  107.6671    2.5439 H        36        0    0.0000
    221 H         115.4144  108.8489    0.6153 H        36        0    0.0000
    222 H         116.3907  109.9557    1.5745 H        36        0    0.0000
    223 C         117.3064  107.9932    1.2921 C.3      37        0    0.0000
    224 C         117.1933  107.1418    0.0226 C.3      37        0    0.0000
    225 H         118.2040  108.6221    1.2445 H        37        0    0.0000
    226 H         117.4215  107.3458    2.1702 H        37        0    0.0000
    227 H         116.1589  106.8020   -0.1115 H        37        0    0.0000
    228 H         117.4434  107.7455   -0.8586 H        37        0    0.0000
    229 C         118.1356  105.8896    0.0613 C.3      38        0    0.0000
    230 C         118.4824  105.3801   -1.3420 C.3      38        0    0.0000
    231 H         119.0524  106.1535    0.6029 H        38        0    0.0000
    232 H         117.6456  105.0961    0.6392 H        38        0    0.0000
    233 H         117.6130  104.8795   -1.7859 H        38        0    0.0000
    234 H         118.7292  106.2238   -1.9982 H        38        0    0.0000
    235 C         119.6894  104.3798   -1.3293 C.3      39        0    0.0000
    236 C         120.0500  103.8870   -2.7351 C.3      39        0    0.0000
    237 H         120.5543  104.8751   -0.8710 H        39        0    0.0000
    238 H         119.4363  103.5283   -0.6856 H        39        0    0.0000
    239 H         120.9848  103.3135   -2.7043 H        39        0    0.0000
    240 H         119.2743  103.2053   -3.1052 H        39        0    0.0000
    241 C         120.2143  105.0667   -3.7543 C.3      40        0    0.0000
    242 C         120.2819  104.5760   -5.2047 C.3      40        0    0.0000
    243 H         119.3734  105.7604   -3.6307 H        40        0    0.0000
    244 H         121.1239  105.6264   -3.5037 H        40        0    0.0000
    245 H         120.7716  105.3293   -5.8342 H        40        0    0.0000
    246 H         120.8941  103.6677   -5.2664 H        40        0    0.0000
    247 C         118.8623  104.2696   -5.7950 C.3      41        0    0.0000
    248 C         118.9188  103.8993   -7.2812 C.3      41        0    0.0000
    249 H         118.4094  103.4521   -5.2206 H        41        0    0.0000
    250 H         118.2220  105.1486   -5.6505 H        41        0    0.0000
    251 H         118.3551  102.9754   -7.4603 H        41        0    0.0000
    252 H         118.4400  104.6821   -7.8824 H        41        0    0.0000
    253 C         120.3887  103.7008   -7.7885 C.3      42        0    0.0000
    254 C         120.4626  103.5554   -9.3125 C.3      42        0    0.0000
    255 H         120.9939  104.5558   -7.4624 H        42        0    0.0000
    256 H         120.8127  102.8120   -7.3049 H        42        0    0.0000
    257 H         121.5081  103.4609   -9.6311 H        42        0    0.0000
    258 H         119.9529  102.6366   -9.6279 H        42        0    0.0000
    259 C         119.8155  104.7735  -10.0575 C.3      43        0    0.0000
    260 C         119.7890  104.5773  -11.5773 C.3      43        0    0.0000
    261 H         118.7960  104.9184   -9.6791 H        43        0    0.0000
    262 H         120.3773  105.6814   -9.8052 H        43        0    0.0000
    263 H         118.9681  103.9048  -11.8555 H        43        0    0.0000
    264 H         119.5951  105.5346  -12.0769 H        43        0    0.0000
    265 C         121.1340  103.9857  -12.1236 C.3      44        0    0.0000
    266 C         121.0718  103.6931  -13.6268 C.3      44        0    0.0000
    267 H         121.9440  104.6945  -11.9115 H        44        0    0.0000
    268 H         121.3665  103.0670  -11.5708 H        44        0    0.0000
    269 H         121.9283  104.1529  -14.1352 H        44        0    0.0000
    270 H         121.1437  102.6127  -13.8030 H        44        0    0.0000
    271 C         119.7504  104.2250  -14.2814 C.3      45        0    0.0000
    272 C         119.7456  104.0508  -15.8041 C.3      45        0    0.0000
    273 H         118.8982  103.6940  -13.8394 H        45        0    0.0000
    274 H         119.6296  105.2844  -14.0235 H        45        0    0.0000
    275 H         119.7087  102.9848  -16.0607 H        45        0    0.0000
    276 H         118.8456  104.5093  -16.2323 H        45        0    0.0000
    277 C         121.0080  104.6896  -16.4791 C.3      46        0    0.0000
    278 C         120.9961  104.5282  -18.0032 C.3      46        0    0.0000
    279 H         121.0508  105.7533  -16.2139 H        46        0    0.0000
    280 H         121.9078  104.2237  -16.0586 H        46        0    0.0000
    281 H         121.8063  105.1173  -18.4503 H        46        0    0.0000
    282 H         121.1826  103.4810  -18.2720 H        46        0    0.0000
    283 C         119.6349  104.9779  -18.6376 C.3      47        0    0.0000
    284 C         119.5042  104.5425  -20.1013 C.3      47        0    0.0000
    285 H         118.8127  104.5576  -18.0453 H        47        0    0.0000
    286 H         119.5525  106.0692  -18.5610 H        47        0    0.0000
    287 H         118.8352  103.6764  -20.1778 H        47        0    0.0000
    288 H         119.0486  105.3458  -20.6935 H        47        0    0.0000
    289 C         120.8883  104.1696  -20.7360 C.3      48        0    0.0000
    290 C         120.7766  103.8620  -22.2333 C.3      48        0    0.0000
    291 H         121.5870  104.9996  -20.5735 H        48        0    0.0000
    292 H         121.2994  103.3029  -20.2036 H        48        0    0.0000
    293 H         121.7736  103.6882  -22.6570 H        48        0    0.0000
    294 H         120.2041  102.9388  -22.3860 H        48        0    0.0000
    295 C         120.0852  105.0227  -23.0283 C.3      49        0    0.0000
    296 C         119.8558  104.6624  -24.5003 C.3      49        0    0.0000
    297 H         119.1291  105.2611  -22.5460 H        49        0    0.0000
    298 H         120.7084  105.9225  -22.9540 H        49        0    0.0000
    299 H         118.9664  104.0277  -24.5980 H        49        0    0.0000
    300 H         119.6604  105.5706  -25.0838 H        49        0    0.0000
    301 C         121.0823  103.9135  -25.1266 C.3      50        0    0.0000
    302 C         120.8821  103.6160  -26.6167 C.3      50        0    0.0000
    303 H         121.9814  104.5254  -24.9827 H        50        0    0.0000
    304 H         121.2455  102.9793  -24.5751 H        50        0    0.0000
    305 H         121.8030  103.2006  -27.0444 H        50        0    0.0000
    306 H         120.1029  102.8549  -26.7470 H        50        0    0.0000
    307 C         120.4799  104.8950  -27.4291 C.3      51        0    0.0000
    308 C         120.1006  104.5677  -28.8775 C.3      51        0    0.0000
    309 H         119.6401  105.3863  -26.9222 H        51        0    0.0000
    310 H         121.3172  105.6036  -27.4105 H        51        0    0.0000
    311 H         119.1496  104.0212  -28.9030 H        51        0    0.0000
    312 H         119.9468  105.4941  -29.4447 H        51        0    0.0000
    313 C         121.1961  103.7094  -29.5991 C.3      52        0    0.0000
    314 C         120.8793  103.4916  -31.0828 C.3      52        0    0.0000
    315 H         122.1659  104.2108  -29.4912 H        52        0    0.0000
    316 H         121.2823  102.7431  -29.0870 H        52        0    0.0000
    317 H         121.7062  102.9600  -31.5699 H        52        0    0.0000
    318 H         119.9909  102.8567  -31.1885 H        52        0    0.0000
    319 C         120.6294  104.8406  -31.8412 C.3      53        0    0.0000
    320 C         120.1767  104.6180  -33.2885 C.3      53        0    0.0000
    321 H         119.8734  105.4184  -31.2953 H        53        0    0.0000
    322 H         121.5526  105.4329  -31.8227 H        53        0    0.0000
    323 H         119.1048  104.3863  -33.3160 H        53        0    0.0000
    324 H         120.3155  105.5369  -33.8716 H        53        0    0.0000
    325 C         120.9632  103.4543  -33.9847 C.3      54        0    0.0000
    326 C         120.6108  103.3225  -35.4705 C.3      54        0    0.0000
    327 H         122.0389  103.6350  -33.8678 H        54        0    0.0000
    328 H         120.7428  102.5158  -33.4611 H        54        0    0.0000
    329 H         121.2376  102.5536  -35.9390 H        54        0    0.0000
    330 H         119.5706  102.9923  -35.5825 H        54        0    0.0000
    331 C         120.7994  104.6708  -36.2476 C.3      55        0    0.0000
    332 C         120.3185  104.5764  -37.6998 C.3      55        0    0.0000
    333 H         120.2520  105.4622  -35.7207 H        55        0    0.0000
    334 H         121.8602  104.9495  -36.2200 H        55        0    0.0000
    335 H         119.4230  105.1943  -37.8404 H        55        0    0.0000
    336 H         121.0850  104.9741  -38.3765 H        55        0    0.0000
    337 C         119.9874  103.1033  -38.1214 C.3      56        0    0.0000
    338 C         119.6887  102.9811  -39.6197 C.3      56        0    0.0000
    339 H         120.8344  102.4598  -37.8529 H        56        0    0.0000
    340 H         119.1278  102.7529  -37.5366 H        56        0    0.0000
    341 H         120.5109  102.4602  -40.1259 H        56        0    0.0000
    342 H         118.7880  102.3744  -39.7754 H        56        0    0.0000
    343 C         119.4808  104.3781  -40.2999 C.3      57        0    0.0000
    344 C         119.3191  104.2658  -41.8198 C.3      57        0    0.0000
    345 H         118.5961  104.8565  -39.8618 H        57        0    0.0000
    346 H         120.3376  105.0196  -40.0591 H        57        0    0.0000
    347 H         118.3787  103.7550  -42.0613 H        57        0    0.0000
    348 H         119.2581  105.2659  -42.2666 H        57        0    0.0000
    349 C         120.5038  103.4856  -42.4873 C.3      58        0    0.0000
    350 C         121.1752  104.2931  -43.6036 C.3      58        0    0.0000
    351 H         121.2387  103.2295  -41.7140 H        58        0    0.0000
    352 H         120.1225  102.5374  -42.8860 H        58        0    0.0000
    353 H         120.4403  104.5492  -44.3768 H        58        0    0.0000
    354 H         121.5564  105.2414  -43.2048 H        58        0    0.0000
    355 H         121.9989  103.7507  -44.0677 H        58        0    0.0000
    356 H          99.2798  105.1487  -40.4349 H         0        0    0.0000
@<TRIPOS>BOND
     1     1     2      1
     2     1     3      1
     3     1     4      1
     4     1   356      H
     5     2     5      1
     6     2     6      1
     7     2     7      1
     8     7     8      1
     9     7     9      1
    10     7    10      1
    11     8    11      1
    12     8    12      1
    13     8    13      1
    14    13    14      1
    15    13    15      1
    16    13    16      1
    17    14    17      1
    18    14    18      1
    19    14    19      1
    20    19    20      1
    21    19    21      1
    22    19    22      1
    23    20    23      1
    24    20    24      1
    25    20    25      1
    26    25    26      1
    27    25    27      1
    28    25    28      1
    29    26    29      1
    30    26    30      1
    31    26    31      1
    32    31    32      1
    33    31    33      1
    34    31    34      1
    35    32    35      1
    36    32    36      1
    37    32    37      1
    38    37    38      1
    39    37    39      1
    40    37    40      1
    41    38    41      1
    42    38    42      1
    43    38    43      1
    44    43    44      1
    45    43    45      1
    46    43    46      1
    47    44    47      1
    48    44    48      1
    49    44    49      1
    50    49    50      1
    51    49    51      1
    52    49    52      1
    53    50    53      1
    54    50    54      1
    55    50    55      1
    56    55    56      1
    57    55    57      1
    58    55    58      1
    59    56    59      1
    60    56    60      1
    61    56    61      1
    62    61    62      1
    63    61    63      1
    64    61    64      1
    65    62    65      1
    66    62    66      1
    67    62    67      1
    68    67    68      1
    69    67    69      1
    70    67    70      1
    71    68    71      1
    72    68    72      1
    73    68    73      1
    74    73    74      1
    75    73    75      1
    76    73    76      1
    77    74    77      1
    78    74    78      1
    79    74    79      1
    80    79    80      1
    81    79    81      1
    82    79    82      1
    83    80    83      1
    84    80    84      1
    85    80    85      1
    86    85    86      1
    87    85    87      1
    88    85    88      1
    89    86    89      1
    90    86    90      1
    91    86    91      1
    92    91    92      1
    93    91    93      1
    94    91    94      1
    95    92    95      1
    96    92    96      1
    97    92    97      1
    98    97    98      1
    99    97    99      1
   100    97   100      1
   101    98   101      1
   102    98   102      1
   103    98   103      1
   104   103   104      1
   105   103   105      1
   106   103   106      1
   107   104   107      1
   108   104   108      1
   109   104   109      1
   110   109   110      1
   111   109   111      1
   112   109   112      1
   113   110   113      1
   114   110   114      1
   115   110   115      1
   116   115   116      1
   117   115   117      1
   118   115   118      1
   119   116   119      1
   120   116   120      1
   121   116   121      1
   122   121   122      1
   123   121   123      1
   124   121   124      1
   125   122   125      1
   126   122   126      1
   127   122   127      1
   128   127   128      1
   129   127   129      1
   130   127   130      1
   131   128   131      1
   132   128   132      1
   133   128   133      1
   134   133   134      1
   135   133   135      1
   136   133   136      1
   137   134   137      1
   138   134   138      1
   139   134   139      1
   140   139   140      1
   141   139   141      1
   142   139   142      1
   143   140   143      1
   144   140   144      1
   145   140   145      1
   146   145   146      1
   147   145   147      1
   148   145   148      1
   149   146   149      1
   150   146   150      1
   151   146   151      1
   152   151   152      1
   153   151   153      1
   154   151   154      1
   155   152   155      1
   156   152   156      1
   157   152   157      1
   158   157   158      1
   159   157   159      1
   160   157   160      1
   161   158   161      1
   162   158   162      1
   163   158   163      1
   164   163   164      1
   165   163   165      1
   166   163   166      1
   167   164   167      1
   168   164   168      1
   169   164   169      1
   170   169   170      1
   171   169   171      1
   172   169   172      1
   173   170   173      1
   174   170   174      1
   175   170   175      1
   176   175   176      1
   177   175   177      1
   178   175   178      1
   179   176   179      1
   180   176   180      1
   181   176   181      1
   182   181   182      1
   183   181   183      1
   184   181   184      1
   185   182   185      1
   186   182   186      1
   187   182   187      1
   188   187   188      1
   189   187   189      1
   190   187   190      1
   191   188   191      1
   192   188   192      1
   193   188   193      1
   194   193   194      1
   195   193   195      1
   196   193   196      1
   197   194   197      1
   198   194   198      1
   199   194   199      1
   200   199   200      1
   201   199   201      1
   202   199   202      1
   203   200   203      1
   204   200   204      1
   205   200   205      1
   206   205   206      1
   207   205   207      1
   208   205   208      1
   209   206   209      1
   210   206   210      1
   211   206   211      1
   212   211   212      1
   213   211   213      1
   214   211   214      1
   215   212   215      1
   216   212   216      1
   217   212   217      1
   218   217   218      1
   219   217   219      1
   220   217   220      1
   221   218   221      1
   222   218   222      1
   223   218   223      1
   224   223   224      1
   225   223   225      1
   226   223   226      1
   227   224   227      1
   228   224   228      1
   229   224   229      1
   230   229   230      1
   231   229   231      1
   232   229   232      1
   233   230   233      1
   234   230   234      1
   235   230   235      1
   236   235   236      1
   237   235   237      1
   238   235   238      1
   239   236   239      1
   240   236   240      1
   241   236   241      1
   242   241   242      1
   243   241   243      1
   244   241   244      1
   245   242   245      1
   246   242   246      1
   247   242   247      1
   248   247   248      1
   249   247   249      1
   250   247   250      1
   251   248   251      1
   252   248   252      1
   253   248   253      1
   254   253   254      1
   255   253   255      1
   256   253   256      1
   257   254   257      1
   258   254   258      1
   259   254   259      1
   260   259   260      1
   261   259   261      1
   262   259   262      1
   263   260   263      1
   264   260   264      1
   265   260   265      1
   266   265   266      1
   267   265   267      1
   268   265   268      1
   269   266   269      1
   270   266   270      1
   271   266   271      1
   272   271   272      1
   273   271   273      1
   274   271   274      1
   275   272   275      1
   276   272   276      1
   277   272   277      1
   278   277   278      1
   279   277   279      1
   280   277   280      1
   281   278   281      1
   282   278   282      1
   283   278   283      1
   284   283   284      1
   285   283   285      1
   286   283   286      1
   287   284   287      1
   288   284   288      1
   289   284   289      1
   290   289   290      1
   291   289   291      1
   292   289   292      1
   293   290   293      1
   294   290   294      1
   295   290   295      1
   296   295   296      1
   297   295   297      1
   298   295   298      1
   299   296   299      1
   300   296   300      1
   301   296   301      1
   302   301   302      1
   303   301   303      1
   304   301   304      1
   305   302   305      1
   306   302   306      1
   307   302   307      1
   308   307   308      1
   309   307   309      1
   310   307   310      1
   311   308   311      1
   312   308   312      1
   313   308   313      1
   314   313   314      1
   315   313   315      1
   316   313   316      1
   317   314   317      1
   318   314   318      1
   319   314   319      1
   320   319   320      1
   321   319   321      1
   322   319   322      1
   323   320   323      1
   324   320   324      1
   325   320   325      1
   326   325   326      1
   327   325   327      1
   328   325   328      1
   329   326   329      1
   330   326   330      1
   331   326   331      1
   332   331   332      1
   333   331   333      1
   334   331   334      1
   335   332   335      1
   336   332   336      1
   337   332   337      1
   338   337   338      1
   339   337   339      1
   340   337   340      1
   341   338   341      1
   342   338   342      1
   343   338   343      1
   344   343   344      1
   345   343   345      1
   346   343   346      1
   347   344   347      1
   348   344   348      1
   349   344   349      1
   350   349   350      1
   351   349   351      1
   352   349   352      1
   353   350   353      1
   354   350   354      1
   355   350   355      H
