###
### Created by PolyChef-cpp17 on Thu Feb 27 19:40:30 2025
###

@<TRIPOS>MOLECULE
NO_INFO
140 139 1 0 0
SMALL
USER_CHARGES


@<TRIPOS>ATOM
      1 C         109.2798   53.1887  120.6551 C.3       0        0    0.0000
      2 C         108.4513   52.0375  120.0742 C.3       0        0    0.0000
      3 H         108.8875   54.1502  120.3014 H         0        0    0.0000
      4 H         110.3162   53.1221  120.3014 H         0        0    0.0000
      5 H         108.4063   51.2077  120.7904 H         0        0    0.0000
      6 H         107.4178   52.3651  119.9064 H         0        0    0.0000
      7 C         109.0389   51.5062  118.7215 C.3       1        0    0.0000
      8 C         109.6339   52.6297  117.8655 C.3       1        0    0.0000
      9 H         109.8064   50.7536  118.9407 H         1        0    0.0000
     10 H         108.2432   50.9926  118.1678 H         1        0    0.0000
     11 H         108.9411   53.4794  117.8257 H         1        0    0.0000
     12 H         110.5604   52.9998  118.3218 H         1        0    0.0000
     13 C         109.9435   52.1611  116.4019 C.3       2        0    0.0000
     14 C         109.8833   53.3169  115.3971 C.3       2        0    0.0000
     15 H         110.9372   51.6968  116.3821 H         2        0    0.0000
     16 H         109.2254   51.3808  116.1211 H         2        0    0.0000
     17 H         108.9625   53.8950  115.5434 H         2        0    0.0000
     18 H         110.7190   54.0071  115.5671 H         2        0    0.0000
     19 C         109.9354   52.8165  113.9123 C.3       3        0    0.0000
     20 C         109.8321   53.9689  112.9071 C.3       3        0    0.0000
     21 H         110.8711   52.2651  113.7576 H         3        0    0.0000
     22 H         109.1184   52.1023  113.7510 H         3        0    0.0000
     23 H         108.9015   54.5269  113.0689 H         3        0    0.0000
     24 H         110.6552   54.6776  113.0615 H         3        0    0.0000
     25 C         109.8690   53.4672  111.4224 C.3       4        0    0.0000
     26 C         109.8879   54.6251  110.4184 C.3       4        0    0.0000
     27 H         110.7551   52.8353  111.2846 H         4        0    0.0000
     28 H         108.9954   52.8282  111.2433 H         4        0    0.0000
     29 H         108.9942   55.2483  110.5460 H         4        0    0.0000
     30 H         110.7531   55.2726  110.6072 H         4        0    0.0000
     31 C         109.9464   54.1236  108.9343 C.3       5        0    0.0000
     32 C         108.8981   54.8062  108.0488 C.3       5        0    0.0000
     33 H         110.9523   54.3092  108.5377 H         5        0    0.0000
     34 H         109.7987   53.0366  108.9223 H         5        0    0.0000
     35 H         107.9368   54.8570  108.5749 H         5        0    0.0000
     36 H         109.1980   55.8406  107.8400 H         5        0    0.0000
     37 C         108.6904   54.0560  106.6881 C.3       6        0    0.0000
     38 C         109.0330   54.9363  105.4812 C.3       6        0    0.0000
     39 H         109.3130   53.1527  106.6837 H         6        0    0.0000
     40 H         107.6478   53.7203  106.6249 H         6        0    0.0000
     41 H         108.1483   55.5033  105.1659 H         6        0    0.0000
     42 H         109.7973   55.6731  105.7579 H         6        0    0.0000
     43 C         109.5563   54.0984  104.2640 C.3       7        0    0.0000
     44 C         108.9432   54.5574  102.9364 C.3       7        0    0.0000
     45 H         110.6494   54.1806  104.2219 H         7        0    0.0000
     46 H         109.3264   53.0399  104.4385 H         7        0    0.0000
     47 H         107.8571   54.6698  103.0425 H         7        0    0.0000
     48 H         109.3367   55.5438  102.6615 H         7        0    0.0000
     49 C         109.2355   53.5534  101.7685 C.3       8        0    0.0000
     50 C         109.0830   54.2056  100.3900 C.3       8        0    0.0000
     51 H         110.2522   53.1587  101.8875 H         8        0    0.0000
     52 H         108.5534   52.6988  101.8578 H         8        0    0.0000
     53 H         108.0432   54.5191  100.2351 H         8        0    0.0000
     54 H         109.6973   55.1128  100.3330 H         8        0    0.0000
     55 C         109.4983   53.2403   99.2267 C.3       9        0    0.0000
     56 C         109.2504   53.8554   97.8450 C.3       9        0    0.0000
     57 H         110.5593   52.9856   99.3403 H         9        0    0.0000
     58 H         108.9369   52.3031   99.3275 H         9        0    0.0000
     59 H         108.1936   54.1306   97.7398 H         9        0    0.0000
     60 H         109.8294   54.7808   97.7358 H         9        0    0.0000
     61 C         109.6361   52.8779   96.6817 C.3      10        0    0.0000
     62 C         109.3976   53.4967   95.2999 C.3      10        0    0.0000
     63 H         110.6910   52.5970   96.7910 H        10        0    0.0000
     64 H         109.0519   51.9554   96.7866 H        10        0    0.0000
     65 H         108.3430   53.7787   95.1910 H        10        0    0.0000
     66 H         109.9827   54.4187   95.1945 H        10        0    0.0000
     67 C         109.7818   52.5187   94.1366 C.3      11        0    0.0000
     68 C         109.5419   53.1369   92.7548 C.3      11        0    0.0000
     69 H         110.8367   52.2375   94.2449 H        11        0    0.0000
     70 H         109.1974   51.5963   94.2426 H        11        0    0.0000
     71 H         108.4868   53.4168   92.6460 H        11        0    0.0000
     72 H         110.1252   54.0601   92.6494 H        11        0    0.0000
     73 C         109.9280   52.1597   91.5915 C.3      12        0    0.0000
     74 C         109.6782   52.7740   90.2098 C.3      12        0    0.0000
     75 H         110.9852   51.8859   91.6959 H        12        0    0.0000
     76 H         109.3504   51.2335   91.7014 H        12        0    0.0000
     77 H         108.6203   53.0446   90.1041 H        12        0    0.0000
     78 H         110.2530   53.7020   90.1012 H        12        0    0.0000
     79 C         110.0689   51.7986   89.0465 C.3      13        0    0.0000
     80 C         109.8177   52.4124   87.6647 C.3      13        0    0.0000
     81 H         111.1271   51.5288   89.1515 H        13        0    0.0000
     82 H         109.4948   50.8701   89.1556 H        13        0    0.0000
     83 H         108.7593   52.6809   87.5592 H        13        0    0.0000
     84 H         110.3908   53.3415   87.5560 H        13        0    0.0000
     85 C         110.2101   51.4376   86.5014 C.3      14        0    0.0000
     86 C         109.9630   52.0530   85.1196 C.3      14        0    0.0000
     87 H         111.2678   51.1666   86.6087 H        14        0    0.0000
     88 H         109.6347   50.5097   86.6083 H        14        0    0.0000
     89 H         108.9048   52.3213   85.0112 H        14        0    0.0000
     90 H         110.5361   52.9825   85.0139 H        14        0    0.0000
     91 C         110.3593   51.0799   83.9563 C.3      15        0    0.0000
     92 C         110.1060   51.6928   82.5746 C.3      15        0    0.0000
     93 H         111.4188   50.8154   84.0620 H        15        0    0.0000
     94 H         109.7898   50.1485   84.0649 H        15        0    0.0000
     95 H         109.0430   51.9398   82.4618 H        15        0    0.0000
     96 H         110.6605   52.6339   82.4731 H        15        0    0.0000
     97 C         110.5272   50.7300   81.4113 C.3      16        0    0.0000
     98 C         110.2830   51.3468   80.0296 C.3      16        0    0.0000
     99 H         111.5884   50.4774   81.5282 H        16        0    0.0000
    100 H         109.9673   49.7917   81.5087 H        16        0    0.0000
    101 H         109.2375   51.1996   79.7315 H        16        0    0.0000
    102 H         110.4505   52.4304   80.0665 H        16        0    0.0000
    103 C         111.2138   50.7287   78.9301 C.3      17        0    0.0000
    104 C         110.9147   51.2875   77.5346 C.3      17        0    0.0000
    105 H         112.2587   50.9275   79.1989 H        17        0    0.0000
    106 H         111.0896   49.6387   78.9335 H        17        0    0.0000
    107 H         109.8414   51.2111   77.3210 H        17        0    0.0000
    108 H         111.1689   52.3539   77.4940 H        17        0    0.0000
    109 C         111.7083   50.5357   76.4110 C.3      18        0    0.0000
    110 C         111.4089   51.0942   75.0155 C.3      18        0    0.0000
    111 H         112.7816   50.6122   76.6246 H        18        0    0.0000
    112 H         111.4543   49.4692   76.4519 H        18        0    0.0000
    113 H         110.3361   51.0140   74.8005 H        18        0    0.0000
    114 H         111.6593   52.1615   74.9758 H        18        0    0.0000
    115 C         112.2066   50.3459   73.8925 C.3      19        0    0.0000
    116 C         111.9050   50.9025   72.4966 C.3      19        0    0.0000
    117 H         113.2795   50.4279   74.1063 H        19        0    0.0000
    118 H         111.9579   49.2782   73.9336 H        19        0    0.0000
    119 H         110.8326   50.8172   72.2813 H        19        0    0.0000
    120 H         112.1503   51.9710   72.4566 H        19        0    0.0000
    121 C         112.7065   50.1576   71.3741 C.3      20        0    0.0000
    122 C         112.4008   50.7106   69.9777 C.3      20        0    0.0000
    123 H         113.7790   50.2462   71.5873 H        20        0    0.0000
    124 H         112.4642   49.0885   71.4166 H        20        0    0.0000
    125 H         112.8533   51.7029   69.8588 H        20        0    0.0000
    126 H         112.8491   50.0661   69.2114 H        20        0    0.0000
    127 C         110.8608   50.8217   69.7068 C.3      21        0    0.0000
    128 C         110.5493   51.6547   68.4585 C.3      21        0    0.0000
    129 H         110.4471   49.8115   69.5978 H        21        0    0.0000
    130 H         110.3783   51.2665   70.5859 H        21        0    0.0000
    131 H         109.7286   51.1945   67.8944 H        21        0    0.0000
    132 H         110.2087   52.6560   68.7499 H        21        0    0.0000
    133 C         111.7927   51.7987   67.5148 C.3      22        0    0.0000
    134 C         111.4972   52.6778   66.2946 C.3      22        0    0.0000
    135 H         112.6260   52.2211   68.0898 H        22        0    0.0000
    136 H         112.1083   50.7992   67.1908 H        22        0    0.0000
    137 H         110.6639   52.2553   65.7196 H        22        0    0.0000
    138 H         111.1816   53.6773   66.6187 H        22        0    0.0000
    139 H         112.3617   52.7779   65.6385 H        22        0    0.0000
    140 H         109.2798   53.1887  121.7450 H         0        0    0.0000
@<TRIPOS>BOND
     1     1     2      1
     2     1     3      1
     3     1     4      1
     4     1   140      H
     5     2     5      1
     6     2     6      1
     7     2     7      1
     8     7     8      1
     9     7     9      1
    10     7    10      1
    11     8    11      1
    12     8    12      1
    13     8    13      1
    14    13    14      1
    15    13    15      1
    16    13    16      1
    17    14    17      1
    18    14    18      1
    19    14    19      1
    20    19    20      1
    21    19    21      1
    22    19    22      1
    23    20    23      1
    24    20    24      1
    25    20    25      1
    26    25    26      1
    27    25    27      1
    28    25    28      1
    29    26    29      1
    30    26    30      1
    31    26    31      1
    32    31    32      1
    33    31    33      1
    34    31    34      1
    35    32    35      1
    36    32    36      1
    37    32    37      1
    38    37    38      1
    39    37    39      1
    40    37    40      1
    41    38    41      1
    42    38    42      1
    43    38    43      1
    44    43    44      1
    45    43    45      1
    46    43    46      1
    47    44    47      1
    48    44    48      1
    49    44    49      1
    50    49    50      1
    51    49    51      1
    52    49    52      1
    53    50    53      1
    54    50    54      1
    55    50    55      1
    56    55    56      1
    57    55    57      1
    58    55    58      1
    59    56    59      1
    60    56    60      1
    61    56    61      1
    62    61    62      1
    63    61    63      1
    64    61    64      1
    65    62    65      1
    66    62    66      1
    67    62    67      1
    68    67    68      1
    69    67    69      1
    70    67    70      1
    71    68    71      1
    72    68    72      1
    73    68    73      1
    74    73    74      1
    75    73    75      1
    76    73    76      1
    77    74    77      1
    78    74    78      1
    79    74    79      1
    80    79    80      1
    81    79    81      1
    82    79    82      1
    83    80    83      1
    84    80    84      1
    85    80    85      1
    86    85    86      1
    87    85    87      1
    88    85    88      1
    89    86    89      1
    90    86    90      1
    91    86    91      1
    92    91    92      1
    93    91    93      1
    94    91    94      1
    95    92    95      1
    96    92    96      1
    97    92    97      1
    98    97    98      1
    99    97    99      1
   100    97   100      1
   101    98   101      1
   102    98   102      1
   103    98   103      1
   104   103   104      1
   105   103   105      1
   106   103   106      1
   107   104   107      1
   108   104   108      1
   109   104   109      1
   110   109   110      1
   111   109   111      1
   112   109   112      1
   113   110   113      1
   114   110   114      1
   115   110   115      1
   116   115   116      1
   117   115   117      1
   118   115   118      1
   119   116   119      1
   120   116   120      1
   121   116   121      1
   122   121   122      1
   123   121   123      1
   124   121   124      1
   125   122   125      1
   126   122   126      1
   127   122   127      1
   128   127   128      1
   129   127   129      1
   130   127   130      1
   131   128   131      1
   132   128   132      1
   133   128   133      1
   134   133   134      1
   135   133   135      1
   136   133   136      1
   137   134   137      1
   138   134   138      1
   139   134   139      H
