###
### Created by PolyChef-cpp17 on Thu Feb 27 19:40:28 2025
###

@<TRIPOS>MOLECULE
NO_INFO
314 313 1 0 0
SMALL
USER_CHARGES


@<TRIPOS>ATOM
      1 C         159.2798    1.2287  -39.3449 C.3       0        0    0.0000
      2 C         157.8706    1.0682  -38.7641 C.3       0        0    0.0000
      3 H         159.9271    0.4166  -38.9913 H         0        0    0.0000
      4 H         159.7280    2.1655  -38.9913 H         0        0    0.0000
      5 H         157.3720    2.0440  -38.7115 H         0        0    0.0000
      6 H         157.2612    0.4382  -39.4239 H         0        0    0.0000
      7 C         157.8874    0.4316  -37.3317 C.3       1        0    0.0000
      8 C         159.1654    0.7748  -36.5584 C.3       1        0    0.0000
      9 H         157.0073    0.7823  -36.7785 H         1        0    0.0000
     10 H         157.7863   -0.6566  -37.4271 H         1        0    0.0000
     11 H         160.0455    0.5986  -37.1892 H         1        0    0.0000
     12 H         159.1727    1.8405  -36.2980 H         1        0    0.0000
     13 C         159.3089   -0.0675  -35.2441 C.3       2        0    0.0000
     14 C         160.2050    0.6203  -34.2083 C.3       2        0    0.0000
     15 H         158.3105   -0.2389  -34.8232 H         2        0    0.0000
     16 H         159.7169   -1.0535  -35.4989 H         2        0    0.0000
     17 H         161.2599    0.5014  -34.4853 H         2        0    0.0000
     18 H         160.0030    1.6985  -34.1930 H         2        0    0.0000
     19 C         159.9937    0.0460  -32.7651 C.3       3        0    0.0000
     20 C         160.6148    0.9411  -31.6871 C.3       3        0    0.0000
     21 H         158.9178   -0.0692  -32.5844 H         3        0    0.0000
     22 H         160.4307   -0.9591  -32.7170 H         3        0    0.0000
     23 H         161.7040    0.9804  -31.8123 H         3        0    0.0000
     24 H         160.2480    1.9694  -31.7948 H         3        0    0.0000
     25 C         160.2907    0.4382  -30.2381 C.3       4        0    0.0000
     26 C         160.8917    1.3467  -29.1599 C.3       4        0    0.0000
     27 H         159.2016    0.3823  -30.1186 H         4        0    0.0000
     28 H         160.6729   -0.5838  -30.1247 H         4        0    0.0000
     29 H         161.9814    1.3983  -29.2761 H         4        0    0.0000
     30 H         160.5136    2.3699  -29.2766 H         4        0    0.0000
     31 C         160.5611    0.8481  -27.7109 C.3       5        0    0.0000
     32 C         161.1658    1.7542  -26.6328 C.3       5        0    0.0000
     33 H         159.4715    0.7994  -27.5937 H         5        0    0.0000
     34 H         160.9365   -0.1763  -27.5953 H         5        0    0.0000
     35 H         162.2556    1.8018  -26.7492 H         5        0    0.0000
     36 H         160.7915    2.7788  -26.7492 H         5        0    0.0000
     37 C         160.8336    1.2565  -25.1838 C.3       6        0    0.0000
     38 C         161.4574    2.1496  -24.1057 C.3       6        0    0.0000
     39 H         159.7438    1.2250  -25.0619 H         6        0    0.0000
     40 H         161.1930    0.2260  -25.0728 H         6        0    0.0000
     41 H         162.5470    2.1829  -24.2290 H         6        0    0.0000
     42 H         161.0963    3.1797  -24.2153 H         6        0    0.0000
     43 C         161.1279    1.6502  -22.6567 C.3       7        0    0.0000
     44 C         161.0857    2.7983  -21.6422 C.3       7        0    0.0000
     45 H         160.1635    1.1275  -22.6736 H         7        0    0.0000
     46 H         161.8815    0.9113  -22.3574 H         7        0    0.0000
     47 H         162.0793    3.2536  -21.5478 H         7        0    0.0000
     48 H         160.4098    3.5872  -21.9948 H         7        0    0.0000
     49 C         160.6114    2.3224  -20.2259 C.3       8        0    0.0000
     50 C         161.5858    2.7362  -19.1176 C.3       8        0    0.0000
     51 H         159.6165    2.7400  -20.0273 H         8        0    0.0000
     52 H         160.4981    1.2312  -20.2391 H         8        0    0.0000
     53 H         162.6190    2.6665  -19.4798 H         8        0    0.0000
     54 H         161.4186    3.7849  -18.8420 H         8        0    0.0000
     55 C         161.4389    1.8471  -17.8349 C.3       9        0    0.0000
     56 C         161.1445    2.6793  -16.5819 C.3       9        0    0.0000
     57 H         160.6356    1.1184  -17.9998 H         9        0    0.0000
     58 H         162.3626    1.2717  -17.6958 H         9        0    0.0000
     59 H         162.0593    3.1773  -16.2376 H         9        0    0.0000
     60 H         160.4238    3.4721  -16.8177 H         9        0    0.0000
     61 C         160.5721    1.8081  -15.4111 C.3      10        0    0.0000
     62 C         161.0087    2.3245  -14.0357 C.3      10        0    0.0000
     63 H         159.4772    1.7993  -15.4794 H        10        0    0.0000
     64 H         160.9045    0.7714  -15.5465 H        10        0    0.0000
     65 H         162.0946    2.4796  -14.0194 H        10        0    0.0000
     66 H         160.5481    3.3001  -13.8367 H        10        0    0.0000
     67 C         160.6218    1.3380  -12.8804 C.3      11        0    0.0000
     68 C         160.8820    1.9368  -11.4938 C.3      11        0    0.0000
     69 H         159.5624    1.0720  -12.9825 H        11        0    0.0000
     70 H         161.1930    0.4094  -13.0023 H        11        0    0.0000
     71 H         161.9487    2.1649  -11.3767 H        11        0    0.0000
     72 H         160.3432    2.8865  -11.3870 H        11        0    0.0000
     73 C         160.4416    0.9733  -10.3384 C.3      12        0    0.0000
     74 C         160.7104    1.5681   -8.9517 C.3      12        0    0.0000
     75 H         159.3733    0.7506  -10.4516 H        12        0    0.0000
     76 H         160.9753    0.0212  -10.4492 H        12        0    0.0000
     77 H         161.7782    1.7933   -8.8395 H        12        0    0.0000
     78 H         160.1745    2.5189   -8.8399 H        12        0    0.0000
     79 C         160.2734    0.6030   -7.7963 C.3      13        0    0.0000
     80 C         160.5336    1.2017   -6.4096 C.3      13        0    0.0000
     81 H         159.2072    0.3724   -7.9124 H        13        0    0.0000
     82 H         160.8144   -0.3453   -7.9041 H        13        0    0.0000
     83 H         161.6009    1.4265   -6.2912 H        13        0    0.0000
     84 H         159.9977    2.1531   -6.3041 H        13        0    0.0000
     85 C         160.0885    0.2402   -5.2543 C.3      14        0    0.0000
     86 C         160.2929    0.8632   -3.8690 C.3      14        0    0.0000
     87 H         159.0324   -0.0198   -5.3977 H        14        0    0.0000
     88 H         160.6567   -0.6949   -5.3338 H        14        0    0.0000
     89 H         161.3530    1.1003   -3.7158 H        14        0    0.0000
     90 H         159.7447    1.8108   -3.7981 H        14        0    0.0000
     91 C         159.8153   -0.0844   -2.7151 C.3      15        0    0.0000
     92 C         160.1427    0.4789   -1.3278 C.3      15        0    0.0000
     93 H         158.7338   -0.2417   -2.8115 H        15        0    0.0000
     94 H         160.2891   -1.0654   -2.8442 H        15        0    0.0000
     95 H         161.1340    0.9489   -1.3370 H        15        0    0.0000
     96 H         159.4243    1.2641   -1.0615 H        15        0    0.0000
     97 C         160.1180   -0.6266   -0.2167 C.3      16        0    0.0000
     98 C         160.7345   -0.1409    1.0998 C.3      16        0    0.0000
     99 H         159.0795   -0.9399   -0.0527 H        16        0    0.0000
    100 H         160.6589   -1.5080   -0.5827 H        16        0    0.0000
    101 H         160.7397    0.9557    1.1307 H        16        0    0.0000
    102 H         160.1245   -0.4770    1.9474 H        16        0    0.0000
    103 C         162.2010   -0.6588    1.2957 C.3      17        0    0.0000
    104 C         162.7798   -0.2624    2.6584 C.3      17        0    0.0000
    105 H         162.2079   -1.7505    1.1873 H        17        0    0.0000
    106 H         162.8282   -0.2582    0.4897 H        17        0    0.0000
    107 H         162.9706    0.8176    2.6863 H        17        0    0.0000
    108 H         162.0527   -0.4744    3.4520 H        17        0    0.0000
    109 C         164.1142   -1.0197    2.9802 C.3      18        0    0.0000
    110 C         164.7026   -0.6097    4.3347 C.3      18        0    0.0000
    111 H         163.9204   -2.0994    2.9655 H        18        0    0.0000
    112 H         164.8369   -0.8184    2.1797 H        18        0    0.0000
    113 H         164.0868   -1.0108    5.1492 H        18        0    0.0000
    114 H         165.7043   -1.0406    4.4555 H        18        0    0.0000
    115 C         164.7995    0.9468    4.4938 C.3      19        0    0.0000
    116 C         165.4350    1.3559    5.8271 C.3      19        0    0.0000
    117 H         165.3840    1.3519    3.6584 H        19        0    0.0000
    118 H         163.7926    1.3741    4.4102 H        19        0    0.0000
    119 H         166.3664    1.9069    5.6465 H        19        0    0.0000
    120 H         164.7666    2.0363    6.3693 H        19        0    0.0000
    121 C         165.7477    0.1206    6.7401 C.3      20        0    0.0000
    122 C         166.6728    0.4807    7.9078 C.3      20        0    0.0000
    123 H         164.8025   -0.2861    7.1206 H        20        0    0.0000
    124 H         166.2048   -0.6657    6.1267 H        20        0    0.0000
    125 H         167.3051    1.3353    7.6371 H        20        0    0.0000
    126 H         166.0788    0.7909    8.7765 H        20        0    0.0000
    127 C         167.5939   -0.7165    8.3271 C.3      21        0    0.0000
    128 C         168.5392   -0.3476    9.4757 C.3      21        0    0.0000
    129 H         166.9613   -1.5643    8.6181 H        21        0    0.0000
    130 H         168.1724   -1.0405    7.4531 H        21        0    0.0000
    131 H         168.0277    0.3137   10.1861 H        21        0    0.0000
    132 H         168.8238   -1.2487   10.0329 H        21        0    0.0000
    133 C         169.8402    0.3650    8.9688 C.3      22        0    0.0000
    134 C         170.7884    0.7285   10.1168 C.3      22        0    0.0000
    135 H         170.3493   -0.2943    8.2549 H        22        0    0.0000
    136 H         169.5558    1.2686    8.4155 H        22        0    0.0000
    137 H         170.2122    1.0547   10.9915 H        22        0    0.0000
    138 H         171.3592   -0.1555   10.4274 H        22        0    0.0000
    139 C         171.7927    1.8650    9.7207 C.3      23        0    0.0000
    140 C         172.7932    2.1723   10.8403 C.3      23        0    0.0000
    141 H         172.3270    1.5636    8.8111 H        23        0    0.0000
    142 H         171.2231    2.7676    9.4670 H        23        0    0.0000
    143 H         172.2845    2.6761   11.6715 H        23        0    0.0000
    144 H         173.2057    1.2388   11.2429 H        23        0    0.0000
    145 C         173.9756    3.0767   10.3489 C.3      24        0    0.0000
    146 C         174.9648    3.4013   11.4736 C.3      24        0    0.0000
    147 H         174.4938    2.5658    9.5279 H        24        0    0.0000
    148 H         173.5623    4.0035    9.9322 H        24        0    0.0000
    149 H         174.4402    3.8809   12.3092 H        24        0    0.0000
    150 H         175.4043    2.4762   11.8668 H        24        0    0.0000
    151 C         176.1206    4.3456   10.9940 C.3      25        0    0.0000
    152 C         177.5043    3.8146   11.3843 C.3      25        0    0.0000
    153 H         176.0550    4.4599    9.9049 H        25        0    0.0000
    154 H         175.9648    5.3423   11.4252 H        25        0    0.0000
    155 H         178.1336    4.6362   11.7483 H        25        0    0.0000
    156 H         177.4131    3.0980   12.2100 H        25        0    0.0000
    157 C         178.2317    3.1140   10.1853 C.3      26        0    0.0000
    158 C         179.6224    3.7033    9.9252 C.3      26        0    0.0000
    159 H         178.3117    2.0408   10.3986 H        26        0    0.0000
    160 H         177.6081    3.2112    9.2879 H        26        0    0.0000
    161 H         179.9956    4.2000   10.8294 H        26        0    0.0000
    162 H         180.3330    2.9011    9.6905 H        26        0    0.0000
    163 C         179.6189    4.7362    8.7461 C.3      27        0    0.0000
    164 C         180.6655    4.4015    7.6775 C.3      27        0    0.0000
    165 H         178.6177    4.7582    8.2982 H        27        0    0.0000
    166 H         179.8040    5.7381    9.1530 H        27        0    0.0000
    167 H         181.1755    5.3162    7.3510 H        27        0    0.0000
    168 H         181.4363    3.7443    8.0988 H        27        0    0.0000
    169 C         180.0333    3.7011    6.4256 C.3      28        0    0.0000
    170 C         180.3340    4.4542    5.1251 C.3      28        0    0.0000
    171 H         180.4165    2.6750    6.3634 H        28        0    0.0000
    172 H         178.9490    3.6239    6.5736 H        28        0    0.0000
    173 H         180.6079    5.4931    5.3467 H        28        0    0.0000
    174 H         181.1963    4.0021    4.6194 H        28        0    0.0000
    175 C         179.1133    4.4522    4.1416 C.3      29        0    0.0000
    176 C         179.5368    4.7003    2.6896 C.3      29        0    0.0000
    177 H         178.5952    3.4886    4.2229 H        29        0    0.0000
    178 H         178.3998    5.2215    4.4620 H        29        0    0.0000
    179 H         178.8367    5.3932    2.2067 H        29        0    0.0000
    180 H         180.5234    5.1793    2.6621 H        29        0    0.0000
    181 C         179.5947    3.3758    1.8530 C.3      30        0    0.0000
    182 C         179.8127    3.6413    0.3594 C.3      30        0    0.0000
    183 H         180.4023    2.7451    2.2448 H        30        0    0.0000
    184 H         178.6603    2.8211    2.0040 H        30        0    0.0000
    185 H         179.0036    4.2697   -0.0330 H        30        0    0.0000
    186 H         180.7457    4.1985    0.2086 H        30        0    0.0000
    187 C         179.8745    2.3167   -0.4767 C.3      31        0    0.0000
    188 C         180.1997    2.5756   -1.9519 C.3      31        0    0.0000
    189 H         180.6302    1.6550   -0.0355 H        31        0    0.0000
    190 H         178.9118    1.7980   -0.3891 H        31        0    0.0000
    191 H         179.4607    3.2608   -2.3854 H        31        0    0.0000
    192 H         181.1761    3.0677   -2.0412 H        31        0    0.0000
    193 C         180.2205    1.2549   -2.7963 C.3      32        0    0.0000
    194 C         180.1393    1.5271   -4.3024 C.3      32        0    0.0000
    195 H         181.1380    0.7006   -2.5631 H        32        0    0.0000
    196 H         179.3814    0.6215   -2.4828 H        32        0    0.0000
    197 H         179.2666    2.1536   -4.5250 H        32        0    0.0000
    198 H         181.0224    2.0889   -4.6313 H        32        0    0.0000
    199 C         180.0399    0.2060   -5.1404 C.3      33        0    0.0000
    200 C         180.0240    0.4750   -6.6492 C.3      33        0    0.0000
    201 H         180.8876   -0.4409   -4.8826 H        33        0    0.0000
    202 H         179.1311   -0.3327   -4.8448 H        33        0    0.0000
    203 H         179.1451    1.0754   -6.9150 H        33        0    0.0000
    204 H         180.9051    1.0623   -6.9359 H        33        0    0.0000
    205 C         180.0041   -0.8488   -7.4885 C.3      34        0    0.0000
    206 C         179.9960   -0.5799   -8.9974 C.3      34        0    0.0000
    207 H         180.8800   -1.4518   -7.2186 H        34        0    0.0000
    208 H         179.1199   -1.4335   -7.2058 H        34        0    0.0000
    209 H         180.1403   -1.5181   -9.5474 H        34        0    0.0000
    210 H         179.0204   -0.1822   -9.3033 H        34        0    0.0000
    211 C         181.1120    0.4340   -9.4262 C.3      35        0    0.0000
    212 C         181.0773    0.7348  -10.9286 C.3      35        0    0.0000
    213 H         180.9860    1.3614   -8.8538 H        35        0    0.0000
    214 H         182.0899    0.0222   -9.1474 H        35        0    0.0000
    215 H         180.8823    1.8016  -11.0942 H        35        0    0.0000
    216 H         182.0548    0.5198  -11.3780 H        35        0    0.0000
    217 C         179.9824   -0.1011  -11.6768 C.3      36        0    0.0000
    218 C         180.0638    0.0647  -13.1983 C.3      36        0    0.0000
    219 H         180.0986   -1.1580  -11.4068 H        36        0    0.0000
    220 H         178.9935    0.2091  -11.3169 H        36        0    0.0000
    221 H         179.6110    1.0180  -13.4975 H        36        0    0.0000
    222 H         181.1129    0.1004  -13.5172 H        36        0    0.0000
    223 C         179.3428   -1.0990  -13.9621 C.3      37        0    0.0000
    224 C         179.4288   -0.9360  -15.4836 C.3      37        0    0.0000
    225 H         179.7930   -2.0527  -13.6599 H        37        0    0.0000
    226 H         178.2927   -1.1322  -13.6461 H        37        0    0.0000
    227 H         179.9223   -1.8092  -15.9282 H        37        0    0.0000
    228 H         178.4210   -0.8904  -15.9146 H        37        0    0.0000
    229 C         180.2151    0.3548  -15.8994 C.3      38        0    0.0000
    230 C         180.3094    0.5127  -17.4210 C.3      38        0    0.0000
    231 H         179.7175    1.2286  -15.4606 H        38        0    0.0000
    232 H         181.2205    0.3125  -15.4625 H        38        0    0.0000
    233 H         179.8691    1.4695  -17.7279 H        38        0    0.0000
    234 H         181.3611    0.5356  -17.7323 H        38        0    0.0000
    235 C         179.5814   -0.6466  -18.1848 C.3      39        0    0.0000
    236 C         179.6844   -0.4942  -19.7064 C.3      39        0    0.0000
    237 H         180.0167   -1.6039  -17.8723 H        39        0    0.0000
    238 H         178.5280   -0.6648  -17.8790 H        39        0    0.0000
    239 H         180.7050   -0.7208  -20.0389 H        39        0    0.0000
    240 H         179.0239   -1.2162  -20.2023 H        39        0    0.0000
    241 C         179.3056    0.9494  -20.1858 C.3      40        0    0.0000
    242 C         179.5044    1.1312  -21.6946 C.3      40        0    0.0000
    243 H         178.2606    1.1483  -19.9175 H        40        0    0.0000
    244 H         179.9160    1.6763  -19.6357 H        40        0    0.0000
    245 H         178.5935    1.5421  -22.1473 H        40        0    0.0000
    246 H         180.3051    1.8569  -21.8838 H        40        0    0.0000
    247 C         179.8626   -0.2152  -22.4132 C.3      41        0    0.0000
    248 C         179.9954   -0.0464  -23.9307 C.3      41        0    0.0000
    249 H         180.8002   -0.6011  -21.9941 H        41        0    0.0000
    250 H         179.0866   -0.9559  -22.1835 H        41        0    0.0000
    251 H         179.4735    0.8624  -24.2551 H        41        0    0.0000
    252 H         181.0501    0.0814  -24.2041 H        41        0    0.0000
    253 C         179.4141   -1.2711  -24.7178 C.3      42        0    0.0000
    254 C         179.5052   -1.0820  -26.2360 C.3      42        0    0.0000
    255 H         179.9588   -2.1750  -24.4180 H        42        0    0.0000
    256 H         178.3689   -1.4195  -24.4193 H        42        0    0.0000
    257 H         179.2826   -2.0271  -26.7468 H        42        0    0.0000
    258 H         178.7521   -0.3580  -26.5708 H        42        0    0.0000
    259 C         180.9211   -0.5843  -26.6889 C.3      43        0    0.0000
    260 C         180.9244   -0.0814  -28.1367 C.3      43        0    0.0000
    261 H         181.2480    0.2151  -26.0123 H        43        0    0.0000
    262 H         181.6382   -1.4066  -26.5746 H        43        0    0.0000
    263 H         180.9122    1.0154  -28.1540 H        43        0    0.0000
    264 H         181.8469   -0.3942  -28.6414 H        43        0    0.0000
    265 C         179.6964   -0.6133  -28.9531 C.3      44        0    0.0000
    266 C         179.7607   -0.2072  -30.4296 C.3      44        0    0.0000
    267 H         179.6597   -1.7062  -28.8648 H        44        0    0.0000
    268 H         178.7755   -0.2293  -28.4971 H        44        0    0.0000
    269 H         178.7523    0.0060  -30.8054 H        44        0    0.0000
    270 H         180.3403    0.7176  -30.5405 H        44        0    0.0000
    271 C         180.4084   -1.3198  -31.3241 C.3      45        0    0.0000
    272 C         180.4142   -0.9409  -32.8092 C.3      45        0    0.0000
    273 H         181.4337   -1.4996  -30.9777 H        45        0    0.0000
    274 H         179.8574   -2.2570  -31.1772 H        45        0    0.0000
    275 H         181.1199   -0.1195  -32.9851 H        45        0    0.0000
    276 H         180.7612   -1.7890  -33.4124 H        45        0    0.0000
    277 C         178.9962   -0.5062  -33.3169 C.3      46        0    0.0000
    278 C         179.0229   -0.0235  -34.7714 C.3      46        0    0.0000
    279 H         178.3086   -1.3549  -33.2148 H        46        0    0.0000
    280 H         178.6150    0.2885  -32.6638 H        46        0    0.0000
    281 H         178.2494   -0.5398  -35.3533 H        46        0    0.0000
    282 H         178.7889    1.0474  -34.8166 H        46        0    0.0000
    283 C         180.4139   -0.2660  -35.4524 C.3      47        0    0.0000
    284 C         180.3600   -0.0651  -36.9709 C.3      47        0    0.0000
    285 H         181.1488    0.4169  -35.0085 H        47        0    0.0000
    286 H         180.7490   -1.2843  -35.2193 H        47        0    0.0000
    287 H         180.1134    0.9782  -37.2038 H        47        0    0.0000
    288 H         181.3453   -0.2618  -37.4115 H        47        0    0.0000
    289 C         179.3042   -0.9992  -37.6567 C.3      48        0    0.0000
    290 C         179.2112   -0.7597  -39.1676 C.3      48        0    0.0000
    291 H         179.5738   -2.0438  -37.4573 H        48        0    0.0000
    292 H         178.3265   -0.8313  -37.1883 H        48        0    0.0000
    293 H         179.3667   -1.7016  -39.7081 H        48        0    0.0000
    294 H         178.2064   -0.4072  -39.4315 H        48        0    0.0000
    295 C         180.2625    0.2898  -39.6686 C.3      49        0    0.0000
    296 C         180.2414    0.4512  -41.1926 C.3      49        0    0.0000
    297 H         180.0582    1.2533  -39.1854 H        49        0    0.0000
    298 H         181.2603   -0.0234  -39.3372 H        49        0    0.0000
    299 H         179.3009    0.9195  -41.5082 H        49        0    0.0000
    300 H         181.0495    1.1212  -41.5111 H        49        0    0.0000
    301 C         180.3982   -0.9193  -41.9373 C.3      50        0    0.0000
    302 C         180.1678   -0.7897  -43.4470 C.3      50        0    0.0000
    303 H         181.4030   -1.3145  -41.7427 H        50        0    0.0000
    304 H         179.6886   -1.6379  -41.5088 H        50        0    0.0000
    305 H         180.9511   -0.1657  -43.8949 H        50        0    0.0000
    306 H         180.2386   -1.7750  -43.9243 H        50        0    0.0000
    307 C         178.7700   -0.1647  -43.7831 C.3      51        0    0.0000
    308 C         177.9639   -1.0333  -44.7551 C.3      51        0    0.0000
    309 H         178.2107   -0.0266  -42.8495 H        51        0    0.0000
    310 H         178.9228    0.8345  -44.2096 H        51        0    0.0000
    311 H         178.5233   -1.1714  -45.6887 H        51        0    0.0000
    312 H         177.8111   -2.0325  -44.3287 H        51        0    0.0000
    313 H         176.9920   -0.5987  -44.9889 H        51        0    0.0000
    314 H         159.2798    1.2287  -40.4349 H         0        0    0.0000
@<TRIPOS>BOND
     1     1     2      1
     2     1     3      1
     3     1     4      1
     4     1   314      H
     5     2     5      1
     6     2     6      1
     7     2     7      1
     8     7     8      1
     9     7     9      1
    10     7    10      1
    11     8    11      1
    12     8    12      1
    13     8    13      1
    14    13    14      1
    15    13    15      1
    16    13    16      1
    17    14    17      1
    18    14    18      1
    19    14    19      1
    20    19    20      1
    21    19    21      1
    22    19    22      1
    23    20    23      1
    24    20    24      1
    25    20    25      1
    26    25    26      1
    27    25    27      1
    28    25    28      1
    29    26    29      1
    30    26    30      1
    31    26    31      1
    32    31    32      1
    33    31    33      1
    34    31    34      1
    35    32    35      1
    36    32    36      1
    37    32    37      1
    38    37    38      1
    39    37    39      1
    40    37    40      1
    41    38    41      1
    42    38    42      1
    43    38    43      1
    44    43    44      1
    45    43    45      1
    46    43    46      1
    47    44    47      1
    48    44    48      1
    49    44    49      1
    50    49    50      1
    51    49    51      1
    52    49    52      1
    53    50    53      1
    54    50    54      1
    55    50    55      1
    56    55    56      1
    57    55    57      1
    58    55    58      1
    59    56    59      1
    60    56    60      1
    61    56    61      1
    62    61    62      1
    63    61    63      1
    64    61    64      1
    65    62    65      1
    66    62    66      1
    67    62    67      1
    68    67    68      1
    69    67    69      1
    70    67    70      1
    71    68    71      1
    72    68    72      1
    73    68    73      1
    74    73    74      1
    75    73    75      1
    76    73    76      1
    77    74    77      1
    78    74    78      1
    79    74    79      1
    80    79    80      1
    81    79    81      1
    82    79    82      1
    83    80    83      1
    84    80    84      1
    85    80    85      1
    86    85    86      1
    87    85    87      1
    88    85    88      1
    89    86    89      1
    90    86    90      1
    91    86    91      1
    92    91    92      1
    93    91    93      1
    94    91    94      1
    95    92    95      1
    96    92    96      1
    97    92    97      1
    98    97    98      1
    99    97    99      1
   100    97   100      1
   101    98   101      1
   102    98   102      1
   103    98   103      1
   104   103   104      1
   105   103   105      1
   106   103   106      1
   107   104   107      1
   108   104   108      1
   109   104   109      1
   110   109   110      1
   111   109   111      1
   112   109   112      1
   113   110   113      1
   114   110   114      1
   115   110   115      1
   116   115   116      1
   117   115   117      1
   118   115   118      1
   119   116   119      1
   120   116   120      1
   121   116   121      1
   122   121   122      1
   123   121   123      1
   124   121   124      1
   125   122   125      1
   126   122   126      1
   127   122   127      1
   128   127   128      1
   129   127   129      1
   130   127   130      1
   131   128   131      1
   132   128   132      1
   133   128   133      1
   134   133   134      1
   135   133   135      1
   136   133   136      1
   137   134   137      1
   138   134   138      1
   139   134   139      1
   140   139   140      1
   141   139   141      1
   142   139   142      1
   143   140   143      1
   144   140   144      1
   145   140   145      1
   146   145   146      1
   147   145   147      1
   148   145   148      1
   149   146   149      1
   150   146   150      1
   151   146   151      1
   152   151   152      1
   153   151   153      1
   154   151   154      1
   155   152   155      1
   156   152   156      1
   157   152   157      1
   158   157   158      1
   159   157   159      1
   160   157   160      1
   161   158   161      1
   162   158   162      1
   163   158   163      1
   164   163   164      1
   165   163   165      1
   166   163   166      1
   167   164   167      1
   168   164   168      1
   169   164   169      1
   170   169   170      1
   171   169   171      1
   172   169   172      1
   173   170   173      1
   174   170   174      1
   175   170   175      1
   176   175   176      1
   177   175   177      1
   178   175   178      1
   179   176   179      1
   180   176   180      1
   181   176   181      1
   182   181   182      1
   183   181   183      1
   184   181   184      1
   185   182   185      1
   186   182   186      1
   187   182   187      1
   188   187   188      1
   189   187   189      1
   190   187   190      1
   191   188   191      1
   192   188   192      1
   193   188   193      1
   194   193   194      1
   195   193   195      1
   196   193   196      1
   197   194   197      1
   198   194   198      1
   199   194   199      1
   200   199   200      1
   201   199   201      1
   202   199   202      1
   203   200   203      1
   204   200   204      1
   205   200   205      1
   206   205   206      1
   207   205   207      1
   208   205   208      1
   209   206   209      1
   210   206   210      1
   211   206   211      1
   212   211   212      1
   213   211   213      1
   214   211   214      1
   215   212   215      1
   216   212   216      1
   217   212   217      1
   218   217   218      1
   219   217   219      1
   220   217   220      1
   221   218   221      1
   222   218   222      1
   223   218   223      1
   224   223   224      1
   225   223   225      1
   226   223   226      1
   227   224   227      1
   228   224   228      1
   229   224   229      1
   230   229   230      1
   231   229   231      1
   232   229   232      1
   233   230   233      1
   234   230   234      1
   235   230   235      1
   236   235   236      1
   237   235   237      1
   238   235   238      1
   239   236   239      1
   240   236   240      1
   241   236   241      1
   242   241   242      1
   243   241   243      1
   244   241   244      1
   245   242   245      1
   246   242   246      1
   247   242   247      1
   248   247   248      1
   249   247   249      1
   250   247   250      1
   251   248   251      1
   252   248   252      1
   253   248   253      1
   254   253   254      1
   255   253   255      1
   256   253   256      1
   257   254   257      1
   258   254   258      1
   259   254   259      1
   260   259   260      1
   261   259   261      1
   262   259   262      1
   263   260   263      1
   264   260   264      1
   265   260   265      1
   266   265   266      1
   267   265   267      1
   268   265   268      1
   269   266   269      1
   270   266   270      1
   271   266   271      1
   272   271   272      1
   273   271   273      1
   274   271   274      1
   275   272   275      1
   276   272   276      1
   277   272   277      1
   278   277   278      1
   279   277   279      1
   280   277   280      1
   281   278   281      1
   282   278   282      1
   283   278   283      1
   284   283   284      1
   285   283   285      1
   286   283   286      1
   287   284   287      1
   288   284   288      1
   289   284   289      1
   290   289   290      1
   291   289   291      1
   292   289   292      1
   293   290   293      1
   294   290   294      1
   295   290   295      1
   296   295   296      1
   297   295   297      1
   298   295   298      1
   299   296   299      1
   300   296   300      1
   301   296   301      1
   302   301   302      1
   303   301   303      1
   304   301   304      1
   305   302   305      1
   306   302   306      1
   307   302   307      1
   308   307   308      1
   309   307   309      1
   310   307   310      1
   311   308   311      1
   312   308   312      1
   313   308   313      H
